<?xml version="1.0" encoding="UTF-8"?>

<!-- generated on 10/19/20 17:40:21 by Eclipse SUMO netconvert Version 1.6.0
<configuration xmlns:xsi="http://www.w3.org/2001/XMLSchema-instance" xsi:noNamespaceSchemaLocation="http://sumo.dlr.de/xsd/netconvertConfiguration.xsd">

    <input>
        <type-files value="E:\Sumo\data\typemap\osmNetconvert.typ.xml"/>
        <osm-files value="osm_bbox.osm.xml"/>
    </input>

    <output>
        <output-file value="osm.net.xml"/>
        <output.street-names value="true"/>
        <output.original-names value="true"/>
        <ptstop-output value="osm_stops.add.xml"/>
        <ptline-output value="osm_ptlines.xml"/>
    </output>

    <projection>
        <proj.utm value="true"/>
    </projection>

    <processing>
        <geometry.remove value="true"/>
        <roundabouts.guess value="true"/>
    </processing>

    <tls_building>
        <tls.discard-simple value="true"/>
        <tls.join value="true"/>
        <tls.guess-signals value="true"/>
        <tls.default-type value="actuated"/>
    </tls_building>

    <ramp_guessing>
        <ramps.guess value="true"/>
    </ramp_guessing>

    <junctions>
        <junctions.join value="true"/>
        <junctions.corner-detail value="5"/>
    </junctions>

    <railway>
        <railway.topology.repair value="true"/>
        <railway.topology.repair.stop-turn value="true"/>
    </railway>

    <report>
        <verbose value="true"/>
        <aggregate-warnings value="5"/>
    </report>

</configuration>
-->

<net version="1.6" junctionCornerDetail="5" limitTurnSpeed="5.50" xmlns:xsi="http://www.w3.org/2001/XMLSchema-instance" xsi:noNamespaceSchemaLocation="http://sumo.dlr.de/xsd/net_file.xsd">

    <location netOffset="-224805.89,-2312468.65" convBoundary="0.00,0.00,4895.11,6617.73" origBoundary="-89.646111,20.892785,-89.598289,20.952108" projParameter="+proj=utm +zone=16 +ellps=WGS84 +datum=WGS84 +units=m +no_defs"/>

    <type id="highway.bridleway" priority="1" numLanes="1" speed="2.78" allow="pedestrian" oneway="1" width="2.00"/>
    <type id="highway.bus_guideway" priority="1" numLanes="1" speed="27.78" allow="bus" oneway="1"/>
    <type id="highway.cycleway" priority="1" numLanes="1" speed="8.33" allow="bicycle" oneway="0" width="1.00"/>
    <type id="highway.footway" priority="1" numLanes="1" speed="2.78" allow="pedestrian" oneway="1" width="2.00"/>
    <type id="highway.ford" priority="1" numLanes="1" speed="2.78" allow="army" oneway="0"/>
    <type id="highway.living_street" priority="2" numLanes="1" speed="2.78" disallow="tram rail_urban rail rail_electric rail_fast ship" oneway="0"/>
    <type id="highway.motorway" priority="14" numLanes="2" speed="39.44" allow="private emergency authority army vip passenger hov taxi bus coach delivery truck trailer motorcycle evehicle custom1 custom2" oneway="1"/>
    <type id="highway.motorway_link" priority="9" numLanes="1" speed="22.22" allow="private emergency authority army vip passenger hov taxi bus coach delivery truck trailer motorcycle evehicle custom1 custom2" oneway="1"/>
    <type id="highway.path" priority="1" numLanes="1" speed="2.78" allow="pedestrian bicycle" oneway="1" width="2.00"/>
    <type id="highway.pedestrian" priority="1" numLanes="1" speed="2.78" allow="pedestrian" oneway="1" width="2.00"/>
    <type id="highway.primary" priority="12" numLanes="2" speed="27.78" disallow="tram rail_urban rail rail_electric rail_fast ship" oneway="0"/>
    <type id="highway.primary_link" priority="7" numLanes="1" speed="22.22" disallow="tram rail_urban rail rail_electric rail_fast ship" oneway="0"/>
    <type id="highway.raceway" priority="15" numLanes="2" speed="83.33" allow="vip" oneway="0"/>
    <type id="highway.residential" priority="3" numLanes="1" speed="13.89" disallow="tram rail_urban rail rail_electric rail_fast ship" oneway="0"/>
    <type id="highway.secondary" priority="11" numLanes="1" speed="27.78" disallow="tram rail_urban rail rail_electric rail_fast ship" oneway="0"/>
    <type id="highway.secondary_link" priority="6" numLanes="1" speed="22.22" disallow="tram rail_urban rail rail_electric rail_fast ship" oneway="0"/>
    <type id="highway.service" priority="1" numLanes="1" speed="5.56" allow="pedestrian delivery bicycle" oneway="0"/>
    <type id="highway.stairs" priority="1" numLanes="1" speed="1.39" allow="pedestrian" oneway="1" width="2.00"/>
    <type id="highway.step" priority="1" numLanes="1" speed="1.39" allow="pedestrian" oneway="1" width="2.00"/>
    <type id="highway.steps" priority="1" numLanes="1" speed="1.39" allow="pedestrian" oneway="1" width="2.00"/>
    <type id="highway.tertiary" priority="10" numLanes="1" speed="22.22" disallow="tram rail_urban rail rail_electric rail_fast ship" oneway="0"/>
    <type id="highway.tertiary_link" priority="5" numLanes="1" speed="22.22" disallow="tram rail_urban rail rail_electric rail_fast ship" oneway="0"/>
    <type id="highway.track" priority="1" numLanes="1" speed="5.56" disallow="tram rail_urban rail rail_electric rail_fast ship" oneway="0"/>
    <type id="highway.trunk" priority="13" numLanes="2" speed="27.78" disallow="pedestrian bicycle tram rail_urban rail rail_electric rail_fast ship" oneway="0"/>
    <type id="highway.trunk_link" priority="8" numLanes="1" speed="22.22" disallow="pedestrian bicycle tram rail_urban rail rail_electric rail_fast ship" oneway="0"/>
    <type id="highway.unclassified" priority="4" numLanes="1" speed="13.89" disallow="tram rail_urban rail rail_electric rail_fast ship" oneway="0"/>
    <type id="highway.unsurfaced" priority="1" numLanes="1" speed="8.33" disallow="tram rail_urban rail rail_electric rail_fast ship" oneway="0"/>
    <type id="railway.highspeed" priority="21" numLanes="1" speed="69.44" allow="rail_fast" oneway="1"/>
    <type id="railway.light_rail" priority="19" numLanes="1" speed="27.78" allow="rail_urban" oneway="1"/>
    <type id="railway.preserved" priority="16" numLanes="1" speed="27.78" allow="rail" oneway="1"/>
    <type id="railway.rail" priority="20" numLanes="1" speed="44.44" allow="rail" oneway="1"/>
    <type id="railway.subway" priority="18" numLanes="1" speed="27.78" allow="rail_urban" oneway="1"/>
    <type id="railway.tram" priority="17" numLanes="1" speed="13.89" allow="tram" oneway="1"/>

    <edge id=":2474074970_0" function="internal">
        <lane id=":2474074970_0_0" index="0" disallow="tram rail_urban rail rail_electric rail_fast ship" speed="3.65" length="4.67" shape="1816.51,3112.56 1816.94,3111.19 1817.60,3110.58 1818.48,3110.74 1819.58,3111.66"/>
    </edge>
    <edge id=":287136257_0" function="internal">
        <lane id=":287136257_0_0" index="0" disallow="tram rail_urban rail rail_electric rail_fast ship" speed="3.65" length="4.67" shape="2707.06,5870.17 2705.75,5870.77 2704.86,5870.69 2704.38,5869.93 2704.33,5868.49"/>
    </edge>
    <edge id=":287666184_0" function="internal">
        <lane id=":287666184_0_0" index="0" disallow="tram rail_urban rail rail_electric rail_fast ship" speed="3.65" length="4.67" shape="1734.35,4481.82 1735.01,4480.54 1735.76,4480.05 1736.60,4480.35 1737.53,4481.46"/>
    </edge>
    <edge id=":287667298_0" function="internal">
        <lane id=":287667298_0_0" index="0" disallow="tram rail_urban rail rail_electric rail_fast ship" speed="7.53" length="10.73" shape="2029.41,5065.64 2028.54,5062.89 2027.02,5060.91 2024.84,5059.71 2022.01,5059.30"/>
    </edge>
    <edge id=":287667298_1" function="internal">
        <lane id=":287667298_1_0" index="0" disallow="tram rail_urban rail rail_electric rail_fast ship" speed="13.89" length="15.44" shape="2029.41,5065.64 2027.16,5050.37"/>
    </edge>
    <edge id=":287667298_2" function="internal">
        <lane id=":287667298_2_0" index="0" disallow="tram rail_urban rail rail_electric rail_fast ship" speed="7.76" length="14.79" shape="2029.41,5065.64 2029.30,5061.50 2030.58,5058.51 2033.27,5056.68 2037.35,5056.00"/>
    </edge>
    <edge id=":287667298_3" function="internal">
        <lane id=":287667298_3_0" index="0" disallow="tram rail_urban rail rail_electric rail_fast ship" speed="3.65" length="4.67" shape="2029.41,5065.64 2030.00,5064.32 2030.72,5063.79 2031.57,5064.05 2032.57,5065.10"/>
    </edge>
    <edge id=":287667298_4" function="internal">
        <lane id=":287667298_4_0" index="0" disallow="tram rail_urban rail rail_electric rail_fast ship" speed="6.21" length="9.05" shape="2037.42,5059.20 2034.92,5059.61 2033.28,5060.73 2032.50,5062.56 2032.57,5065.10"/>
    </edge>
    <edge id=":287667298_5" function="internal">
        <lane id=":287667298_5_0" index="0" disallow="tram rail_urban rail rail_electric rail_fast ship" speed="13.89" length="15.41" shape="2037.42,5059.20 2022.01,5059.30"/>
    </edge>
    <edge id=":287667298_6" function="internal">
        <lane id=":287667298_6_0" index="0" disallow="tram rail_urban rail rail_electric rail_fast ship" speed="8.55" length="6.42" shape="2037.42,5059.20 2033.35,5058.72 2031.31,5057.64"/>
    </edge>
    <edge id=":287667298_7" function="internal">
        <lane id=":287667298_7_0" index="0" disallow="tram rail_urban rail rail_electric rail_fast ship" speed="3.65" length="2.34" shape="2037.42,5059.20 2036.21,5058.42 2035.79,5057.63"/>
    </edge>
    <edge id=":287667298_16" function="internal">
        <lane id=":287667298_16_0" index="0" disallow="tram rail_urban rail rail_electric rail_fast ship" speed="8.55" length="8.71" shape="2031.31,5057.64 2030.28,5057.09 2028.21,5054.31 2027.16,5050.37"/>
    </edge>
    <edge id=":287667298_17" function="internal">
        <lane id=":287667298_17_0" index="0" disallow="tram rail_urban rail rail_electric rail_fast ship" speed="3.65" length="2.34" shape="2035.79,5057.63 2036.17,5056.82 2037.35,5056.00"/>
    </edge>
    <edge id=":287667298_8" function="internal">
        <lane id=":287667298_8_0" index="0" disallow="tram rail_urban rail rail_electric rail_fast ship" speed="7.16" length="10.32" shape="2030.34,5049.98 2031.06,5052.67 2032.47,5054.56 2034.57,5055.67 2037.35,5056.00"/>
    </edge>
    <edge id=":287667298_9" function="internal">
        <lane id=":287667298_9_0" index="0" disallow="tram rail_urban rail rail_electric rail_fast ship" speed="13.89" length="15.28" shape="2030.34,5049.98 2032.57,5065.10"/>
    </edge>
    <edge id=":287667298_10" function="internal">
        <lane id=":287667298_10_0" index="0" disallow="tram rail_urban rail rail_electric rail_fast ship" speed="7.79" length="14.71" shape="2030.34,5049.98 2030.25,5054.09 2028.83,5057.01 2026.08,5058.75 2022.01,5059.30"/>
    </edge>
    <edge id=":287667298_11" function="internal">
        <lane id=":287667298_11_0" index="0" disallow="tram rail_urban rail rail_electric rail_fast ship" speed="3.65" length="4.67" shape="2030.34,5049.98 2029.69,5051.27 2028.94,5051.76 2028.10,5051.46 2027.16,5050.37"/>
    </edge>
    <edge id=":287667298_12" function="internal">
        <lane id=":287667298_12_0" index="0" disallow="tram rail_urban rail rail_electric rail_fast ship" speed="6.24" length="9.05" shape="2022.04,5056.10 2024.55,5055.76 2026.23,5054.69 2027.11,5052.89 2027.16,5050.37"/>
    </edge>
    <edge id=":287667298_13" function="internal">
        <lane id=":287667298_13_0" index="0" disallow="tram rail_urban rail rail_electric rail_fast ship" speed="13.89" length="15.31" shape="2022.04,5056.10 2037.35,5056.00"/>
    </edge>
    <edge id=":287667298_14" function="internal">
        <lane id=":287667298_14_0" index="0" disallow="tram rail_urban rail rail_electric rail_fast ship" speed="8.87" length="6.08" shape="2022.04,5056.10 2026.07,5056.69 2027.83,5057.66"/>
    </edge>
    <edge id=":287667298_15" function="internal">
        <lane id=":287667298_15_0" index="0" disallow="tram rail_urban rail rail_electric rail_fast ship" speed="3.65" length="2.34" shape="2022.04,5056.10 2023.23,5056.91 2023.63,5057.71"/>
    </edge>
    <edge id=":287667298_18" function="internal">
        <lane id=":287667298_18_0" index="0" disallow="tram rail_urban rail rail_electric rail_fast ship" speed="8.87" length="9.16" shape="2027.83,5057.66 2029.16,5058.39 2031.33,5061.19 2032.57,5065.10"/>
    </edge>
    <edge id=":287667298_19" function="internal">
        <lane id=":287667298_19_0" index="0" disallow="tram rail_urban rail rail_electric rail_fast ship" speed="3.65" length="2.34" shape="2023.63,5057.71 2023.22,5058.51 2022.01,5059.30"/>
    </edge>
    <edge id=":287668504_0" function="internal">
        <lane id=":287668504_0_0" index="0" disallow="tram rail_urban rail rail_electric rail_fast ship" speed="3.65" length="4.67" shape="2967.70,6216.15 2966.43,6216.83 2965.54,6216.80 2965.02,6216.07 2964.89,6214.64"/>
    </edge>
    <edge id=":287668505_0" function="internal">
        <lane id=":287668505_0_0" index="0" disallow="tram rail_urban rail rail_electric rail_fast ship" speed="6.57" length="9.11" shape="3198.62,5801.83 3196.28,5801.00 3194.22,5801.12 3192.45,5802.18 3190.96,5804.19"/>
    </edge>
    <edge id=":287668505_1" function="internal">
        <lane id=":287668505_1_0" index="0" disallow="tram rail_urban rail rail_electric rail_fast ship" speed="13.89" length="14.43" shape="3198.62,5801.83 3185.85,5795.09"/>
    </edge>
    <edge id=":287668505_2" function="internal">
        <lane id=":287668505_2_0" index="0" disallow="tram rail_urban rail rail_electric rail_fast ship" speed="8.02" length="5.95" shape="3198.62,5801.83 3195.47,5799.56 3194.39,5797.79"/>
    </edge>
    <edge id=":287668505_3" function="internal">
        <lane id=":287668505_3_0" index="0" disallow="tram rail_urban rail rail_electric rail_fast ship" speed="3.65" length="2.34" shape="3198.62,5801.83 3197.93,5800.56 3197.94,5799.67"/>
    </edge>
    <edge id=":287668505_16" function="internal">
        <lane id=":287668505_16_0" index="0" disallow="tram rail_urban rail rail_electric rail_fast ship" speed="8.02" length="8.26" shape="3194.39,5797.79 3193.80,5796.81 3193.61,5793.60 3194.90,5789.92"/>
    </edge>
    <edge id=":287668505_17" function="internal">
        <lane id=":287668505_17_0" index="0" disallow="tram rail_urban rail rail_electric rail_fast ship" speed="3.65" length="2.34" shape="3197.94,5799.67 3198.67,5799.14 3200.10,5798.99"/>
    </edge>
    <edge id=":287668505_4" function="internal">
        <lane id=":287668505_4_0" index="0" disallow="tram rail_urban rail rail_electric rail_fast ship" speed="6.53" length="9.07" shape="3197.74,5791.39 3196.92,5793.74 3197.04,5795.79 3198.10,5797.54 3200.10,5798.99"/>
    </edge>
    <edge id=":287668505_5" function="internal">
        <lane id=":287668505_5_0" index="0" disallow="tram rail_urban rail rail_electric rail_fast ship" speed="13.89" length="14.49" shape="3197.74,5791.39 3190.96,5804.19"/>
    </edge>
    <edge id=":287668505_6" function="internal">
        <lane id=":287668505_6_0" index="0" disallow="tram rail_urban rail rail_electric rail_fast ship" speed="7.98" length="14.23" shape="3197.74,5791.39 3195.47,5794.57 3192.73,5796.24 3189.53,5796.42 3185.85,5795.09"/>
    </edge>
    <edge id=":287668505_7" function="internal">
        <lane id=":287668505_7_0" index="0" disallow="tram rail_urban rail rail_electric rail_fast ship" speed="3.65" length="4.67" shape="3197.74,5791.39 3196.48,5792.09 3195.59,5792.07 3195.06,5791.35 3194.90,5789.92"/>
    </edge>
    <edge id=":287668505_8" function="internal">
        <lane id=":287668505_8_0" index="0" disallow="tram rail_urban rail rail_electric rail_fast ship" speed="6.48" length="9.03" shape="3187.36,5792.27 3189.69,5793.11 3191.72,5793.00 3193.46,5791.93 3194.90,5789.92"/>
    </edge>
    <edge id=":287668505_9" function="internal">
        <lane id=":287668505_9_0" index="0" disallow="tram rail_urban rail rail_electric rail_fast ship" speed="13.89" length="14.41" shape="3187.36,5792.27 3200.10,5798.99"/>
    </edge>
    <edge id=":287668505_10" function="internal">
        <lane id=":287668505_10_0" index="0" disallow="tram rail_urban rail rail_electric rail_fast ship" speed="7.99" length="5.90" shape="3187.36,5792.27 3190.51,5794.57 3191.54,5796.28"/>
    </edge>
    <edge id=":287668505_11" function="internal">
        <lane id=":287668505_11_0" index="0" disallow="tram rail_urban rail rail_electric rail_fast ship" speed="3.65" length="2.34" shape="3187.36,5792.27 3188.04,5793.54 3188.02,5794.43"/>
    </edge>
    <edge id=":287668505_18" function="internal">
        <lane id=":287668505_18_0" index="0" disallow="tram rail_urban rail rail_electric rail_fast ship" speed="7.99" length="8.33" shape="3191.54,5796.28 3192.16,5797.33 3192.31,5800.53 3190.96,5804.19"/>
    </edge>
    <edge id=":287668505_19" function="internal">
        <lane id=":287668505_19_0" index="0" disallow="tram rail_urban rail rail_electric rail_fast ship" speed="3.65" length="2.34" shape="3188.02,5794.43 3187.29,5794.95 3185.85,5795.09"/>
    </edge>
    <edge id=":287668505_12" function="internal">
        <lane id=":287668505_12_0" index="0" disallow="tram rail_urban rail rail_electric rail_fast ship" speed="6.49" length="9.04" shape="3188.15,5802.67 3189.01,5800.34 3188.91,5798.31 3187.86,5796.55 3185.85,5795.09"/>
    </edge>
    <edge id=":287668505_13" function="internal">
        <lane id=":287668505_13_0" index="0" disallow="tram rail_urban rail rail_electric rail_fast ship" speed="13.89" length="14.43" shape="3188.15,5802.67 3194.90,5789.92"/>
    </edge>
    <edge id=":287668505_14" function="internal">
        <lane id=":287668505_14_0" index="0" disallow="tram rail_urban rail rail_electric rail_fast ship" speed="8.05" length="14.22" shape="3188.15,5802.67 3190.47,5799.54 3193.23,5797.88 3196.44,5797.70 3200.10,5798.99"/>
    </edge>
    <edge id=":287668505_15" function="internal">
        <lane id=":287668505_15_0" index="0" disallow="tram rail_urban rail rail_electric rail_fast ship" speed="3.65" length="4.67" shape="3188.15,5802.67 3189.42,5801.99 3190.32,5802.02 3190.83,5802.76 3190.96,5804.19"/>
    </edge>
    <edge id=":287684801_0" function="internal">
        <lane id=":287684801_0_0" index="0" disallow="tram rail_urban rail rail_electric rail_fast ship" speed="3.65" length="4.67" shape="85.57,4968.81 84.31,4968.10 83.86,4967.33 84.21,4966.50 85.35,4965.62"/>
    </edge>
    <edge id=":287685205_0" function="internal">
        <lane id=":287685205_0_0" index="0" disallow="tram rail_urban rail rail_electric rail_fast ship" speed="3.65" length="4.67" shape="502.10,5605.34 500.81,5604.69 500.32,5603.94 500.62,5603.10 501.72,5602.16"/>
    </edge>
    <edge id=":287686473_0" function="internal">
        <lane id=":287686473_0_0" index="0" disallow="tram rail_urban rail rail_electric rail_fast ship" speed="13.89" length="12.06" shape="2755.57,5142.22 2752.61,5140.76 2750.00,5139.91 2747.29,5139.61 2744.00,5139.81"/>
    </edge>
    <edge id=":287686473_1" function="internal">
        <lane id=":287686473_1_0" index="0" disallow="tram rail_urban rail rail_electric rail_fast ship" speed="9.13" length="13.29" shape="2755.57,5142.22 2753.19,5140.37 2751.62,5137.81 2750.88,5134.56 2750.95,5130.62"/>
    </edge>
    <edge id=":287686473_2" function="internal">
        <lane id=":287686473_2_0" index="0" disallow="tram rail_urban rail rail_electric rail_fast ship" speed="3.65" length="4.67" shape="2755.57,5142.22 2754.89,5140.95 2754.92,5140.05 2755.66,5139.54 2757.09,5139.41"/>
    </edge>
    <edge id=":287686473_3" function="internal">
        <lane id=":287686473_3_0" index="0" disallow="tram rail_urban rail rail_electric rail_fast ship" speed="7.54" length="10.31" shape="2743.64,5136.63 2746.62,5135.97 2748.83,5134.74 2750.27,5132.96 2750.95,5130.62"/>
    </edge>
    <edge id=":287686473_4" function="internal">
        <lane id=":287686473_4_0" index="0" disallow="tram rail_urban rail rail_electric rail_fast ship" speed="13.89" length="13.96" shape="2743.64,5136.63 2747.22,5136.49 2750.58,5136.91 2753.83,5137.89 2757.09,5139.41"/>
    </edge>
    <edge id=":287686473_5" function="internal">
        <lane id=":287686473_5_0" index="0" disallow="tram rail_urban rail rail_electric rail_fast ship" speed="3.65" length="4.67" shape="2743.64,5136.63 2744.92,5137.29 2745.41,5138.04 2745.11,5138.88 2744.00,5139.81"/>
    </edge>
    <edge id=":287686473_6" function="internal">
        <lane id=":287686473_6_0" index="0" disallow="tram rail_urban rail rail_electric rail_fast ship" speed="6.16" length="9.38" shape="2749.24,5145.52 2749.19,5142.76 2748.30,5140.89 2746.57,5139.91 2744.00,5139.81"/>
    </edge>
    <edge id=":287686473_7" function="internal">
        <lane id=":287686473_7_0" index="0" disallow="tram rail_urban rail rail_electric rail_fast ship" speed="27.78" length="15.00" shape="2749.24,5145.52 2750.95,5130.62"/>
    </edge>
    <edge id=":287686473_8" function="internal">
        <lane id=":287686473_8_0" index="0" disallow="tram rail_urban rail rail_electric rail_fast ship" speed="6.74" length="12.58" shape="2749.24,5145.52 2750.15,5141.48 2751.77,5139.12 2754.08,5138.43 2757.09,5139.41"/>
    </edge>
    <edge id=":305705856_0" function="internal">
        <lane id=":305705856_0_0" index="0" disallow="tram rail_urban rail rail_electric rail_fast ship" speed="3.65" length="4.67" shape="297.59,5287.60 296.31,5286.94 295.82,5286.19 296.12,5285.35 297.22,5284.42"/>
    </edge>
    <edge id=":305707115_0" function="internal">
        <lane id=":305707115_0_0" index="0" disallow="tram rail_urban rail rail_electric rail_fast ship" speed="3.65" length="4.67" shape="435.21,5499.88 433.82,5499.49 433.19,5498.86 433.32,5497.97 434.20,5496.84"/>
    </edge>
    <edge id=":315233007_0" function="internal">
        <lane id=":315233007_0_0" index="0" disallow="tram rail_urban rail rail_electric rail_fast ship" speed="22.22" length="9.43" shape="1860.74,5450.69 1862.07,5460.03"/>
        <lane id=":315233007_0_1" index="1" disallow="tram rail_urban rail rail_electric rail_fast ship" speed="22.22" length="9.43" shape="1857.57,5451.15 1858.90,5460.47"/>
    </edge>
    <edge id=":315233007_2" function="internal">
        <lane id=":315233007_2_0" index="0" disallow="tram rail_urban rail rail_electric rail_fast ship" speed="6.04" length="7.86" shape="1857.57,5451.15 1857.77,5453.93 1857.45,5455.96 1856.60,5457.25 1855.23,5457.80"/>
    </edge>
    <edge id=":315233007_3" function="internal">
        <lane id=":315233007_3_0" index="0" disallow="tram rail_urban rail rail_electric rail_fast ship" speed="6.17" length="7.82" shape="1854.89,5454.62 1856.32,5454.86 1857.47,5455.91 1858.33,5457.78 1858.90,5460.47"/>
    </edge>
    <edge id=":315233007_4" function="internal">
        <lane id=":315233007_4_0" index="0" disallow="tram rail_urban rail rail_electric rail_fast ship" speed="3.65" length="4.67" shape="1854.89,5454.62 1856.17,5455.29 1856.65,5456.04 1856.34,5456.88 1855.23,5457.80"/>
    </edge>
    <edge id=":315233047_0" function="internal">
        <lane id=":315233047_0_0" index="0" disallow="tram rail_urban rail rail_electric rail_fast ship" speed="6.49" length="9.07" shape="1819.58,5143.00 1817.18,5143.67 1815.58,5144.95 1814.78,5146.83 1814.79,5149.31"/>
    </edge>
    <edge id=":315233047_1" function="internal">
        <lane id=":315233047_1_0" index="0" disallow="tram rail_urban rail rail_electric rail_fast ship" speed="13.89" length="11.56" shape="1819.58,5143.00 1808.07,5144.07"/>
    </edge>
    <edge id=":315233047_2" function="internal">
        <lane id=":315233047_2_0" index="0" disallow="tram rail_urban rail rail_electric rail_fast ship" speed="3.65" length="4.67" shape="1819.58,5143.00 1818.29,5142.36 1817.79,5141.62 1818.08,5140.78 1819.16,5139.83"/>
    </edge>
    <edge id=":315233047_3" function="internal">
        <lane id=":315233047_3_0" index="0" disallow="tram rail_urban rail rail_electric rail_fast ship" speed="6.46" length="9.07" shape="1812.97,5134.92 1813.58,5137.34 1814.82,5138.97 1816.68,5139.80 1819.16,5139.83"/>
    </edge>
    <edge id=":315233047_4" function="internal">
        <lane id=":315233047_4_0" index="0" disallow="tram rail_urban rail rail_electric rail_fast ship" speed="22.22" length="14.50" shape="1812.97,5134.92 1814.79,5149.31"/>
    </edge>
    <edge id=":315233047_5" function="internal">
        <lane id=":315233047_5_0" index="0" disallow="tram rail_urban rail rail_electric rail_fast ship" speed="7.23" length="11.82" shape="1812.97,5134.92 1813.01,5138.80 1812.21,5141.62 1810.56,5143.38 1808.07,5144.07"/>
    </edge>
    <edge id=":315233047_6" function="internal">
        <lane id=":315233047_6_0" index="0" disallow="tram rail_urban rail rail_electric rail_fast ship" speed="13.89" length="11.32" shape="1807.89,5140.88 1819.16,5139.83"/>
    </edge>
    <edge id=":315233047_7" function="internal">
        <lane id=":315233047_7_0" index="0" disallow="tram rail_urban rail rail_electric rail_fast ship" speed="7.67" length="12.04" shape="1807.89,5140.88 1810.43,5141.29 1812.42,5142.83 1813.87,5145.50 1814.79,5149.31"/>
    </edge>
    <edge id=":315233047_8" function="internal">
        <lane id=":315233047_8_0" index="0" disallow="tram rail_urban rail rail_electric rail_fast ship" speed="3.65" length="4.67" shape="1807.89,5140.88 1809.13,5141.61 1809.58,5142.39 1809.22,5143.21 1808.07,5144.07"/>
    </edge>
    <edge id=":315233185_0" function="internal">
        <lane id=":315233185_0_0" index="0" disallow="tram rail_urban rail rail_electric rail_fast ship" speed="22.22" length="9.40" shape="1835.85,5292.53 1837.22,5301.84"/>
    </edge>
    <edge id=":315233185_1" function="internal">
        <lane id=":315233185_1_0" index="0" disallow="tram rail_urban rail rail_electric rail_fast ship" speed="6.05" length="7.85" shape="1835.85,5292.53 1836.05,5295.31 1835.74,5297.34 1834.90,5298.63 1833.54,5299.19"/>
    </edge>
    <edge id=":315233185_2" function="internal">
        <lane id=":315233185_2_0" index="0" disallow="tram rail_urban rail rail_electric rail_fast ship" speed="6.17" length="7.81" shape="1833.18,5296.01 1834.61,5296.24 1835.75,5297.29 1836.63,5299.15 1837.22,5301.84"/>
    </edge>
    <edge id=":315233185_3" function="internal">
        <lane id=":315233185_3_0" index="0" disallow="tram rail_urban rail rail_electric rail_fast ship" speed="3.65" length="4.67" shape="1833.18,5296.01 1834.46,5296.67 1834.95,5297.42 1834.64,5298.26 1833.54,5299.19"/>
    </edge>
    <edge id=":317228402_0" function="internal">
        <lane id=":317228402_0_0" index="0" disallow="tram rail_urban rail rail_electric rail_fast ship" speed="3.65" length="4.67" shape="2363.60,5827.16 2362.97,5828.46 2362.24,5828.97 2361.39,5828.69 2360.43,5827.61"/>
    </edge>
    <edge id=":317228410_0" function="internal">
        <lane id=":317228410_0_0" index="0" disallow="tram rail_urban rail rail_electric rail_fast ship" speed="7.28" length="10.48" shape="2255.28,5062.44 2254.53,5059.70 2253.10,5057.75 2250.99,5056.59 2248.21,5056.22"/>
    </edge>
    <edge id=":317228410_1" function="internal">
        <lane id=":317228410_1_0" index="0" disallow="tram rail_urban rail rail_electric rail_fast ship" speed="22.22" length="15.38" shape="2255.28,5062.44 2253.19,5047.20"/>
    </edge>
    <edge id=":317228410_2" function="internal">
        <lane id=":317228410_2_0" index="0" disallow="tram rail_urban rail rail_electric rail_fast ship" speed="7.75" length="14.81" shape="2255.28,5062.44 2255.33,5058.29 2256.74,5055.36 2259.51,5053.64 2263.63,5053.15"/>
    </edge>
    <edge id=":317228410_3" function="internal">
        <lane id=":317228410_3_0" index="0" disallow="tram rail_urban rail rail_electric rail_fast ship" speed="3.65" length="4.67" shape="2255.28,5062.44 2255.92,5061.15 2256.66,5060.65 2257.50,5060.94 2258.45,5062.03"/>
    </edge>
    <edge id=":317228410_4" function="internal">
        <lane id=":317228410_4_0" index="0" disallow="tram rail_urban rail rail_electric rail_fast ship" speed="6.20" length="9.05" shape="2263.55,5056.35 2261.04,5056.65 2259.35,5057.70 2258.48,5059.49 2258.45,5062.03"/>
    </edge>
    <edge id=":317228410_5" function="internal">
        <lane id=":317228410_5_0" index="0" disallow="tram rail_urban rail rail_electric rail_fast ship" speed="13.89" length="15.35" shape="2263.55,5056.35 2248.21,5056.22"/>
    </edge>
    <edge id=":317228410_6" function="internal">
        <lane id=":317228410_6_0" index="0" disallow="tram rail_urban rail rail_electric rail_fast ship" speed="8.82" length="6.14" shape="2263.55,5056.35 2259.50,5055.70 2257.73,5054.70"/>
    </edge>
    <edge id=":317228410_7" function="internal">
        <lane id=":317228410_7_0" index="0" disallow="tram rail_urban rail rail_electric rail_fast ship" speed="3.65" length="2.34" shape="2263.55,5056.35 2262.37,5055.52 2261.99,5054.71"/>
    </edge>
    <edge id=":317228410_16" function="internal">
        <lane id=":317228410_16_0" index="0" disallow="tram rail_urban rail rail_electric rail_fast ship" speed="8.82" length="9.11" shape="2257.73,5054.70 2256.42,5053.96 2254.32,5051.13 2253.19,5047.20"/>
    </edge>
    <edge id=":317228410_17" function="internal">
        <lane id=":317228410_17_0" index="0" disallow="tram rail_urban rail rail_electric rail_fast ship" speed="3.65" length="2.34" shape="2261.99,5054.71 2262.41,5053.92 2263.63,5053.15"/>
    </edge>
    <edge id=":317228410_8" function="internal">
        <lane id=":317228410_8_0" index="0" disallow="tram rail_urban rail rail_electric rail_fast ship" speed="7.47" length="10.68" shape="2256.36,5046.75 2257.15,5049.49 2258.62,5051.47 2260.78,5052.69 2263.63,5053.15"/>
    </edge>
    <edge id=":317228410_9" function="internal">
        <lane id=":317228410_9_0" index="0" disallow="tram rail_urban rail rail_electric rail_fast ship" speed="22.22" length="15.42" shape="2256.36,5046.75 2258.45,5062.03"/>
    </edge>
    <edge id=":317228410_10" function="internal">