<?xml version="1.0" encoding="UTF-8"?>

<!-- generated on 10/19/20 17:40:22 by Eclipse SUMO polyconvert Version 1.6.0
<configuration xmlns:xsi="http://www.w3.org/2001/XMLSchema-instance" xsi:noNamespaceSchemaLocation="http://sumo.dlr.de/xsd/polyconvertConfiguration.xsd">

    <input>
        <net-file value="osm.net.xml"/>
        <osm-files value="osm_bbox.osm.xml"/>
        <osm.keep-full-type value="true"/>
        <type-file value="E:\Sumo\data\typemap\osmPolyconvert.typ.xml"/>
    </input>

    <output>
        <output-file value="osm.poly.xml"/>
    </output>

    <processing>
        <poi-layer-offset value="5"/>
    </processing>

    <report>
        <verbose value="true"/>
    </report>

</configuration>
-->

<additional xmlns:xsi="http://www.w3.org/2001/XMLSchema-instance" xsi:noNamespaceSchemaLocation="http://sumo.dlr.de/xsd/additional_file.xsd">
    <location netOffset="-224805.89,-2312468.65" convBoundary="-0.00,0.00,4895.11,6617.73" origBoundary="-89.646111,20.892785,-89.598289,20.952108" projParameter="+proj=utm +zone=16 +ellps=WGS84 +datum=WGS84 +units=m +no_defs"/>

    <poly id="331466025" type="leisure.park" color="207,245,201" fill="1" layer="-2.00" shape="3194.039052,4635.250853 3192.509421,4541.527118 3199.605620,4535.007769 3292.459455,4539.519523 3295.162030,4542.488861 3299.614832,4629.772385 3290.321903,4640.083239 3197.513530,4638.960935 3194.039052,4635.250853"/>
    <poly id="359613946" type="amenity.university" color="237,199,199" fill="1" layer="-1.00" shape="3329.904030,5327.728924 3411.359246,5372.587356 3416.097443,5067.123577 3228.563811,5072.122276 3189.800022,5079.513097 3078.988984,5080.358558 3050.706487,5075.026256 3030.238597,5071.494065 3007.099388,5083.471554 2986.137336,5108.940740 2931.561372,5220.000199 3138.504358,5331.628827 3161.211139,5292.548722 3221.471739,5328.180314 3238.691121,5339.310380 3218.152238,5376.670997 3282.165141,5410.114371 3329.904030,5327.728924"/>
    <poly id="359878638" type="landuse.commercial" color="209,209,204" fill="1" layer="-3.00" shape="2865.252107,5191.979834 2923.933017,5223.226927 2935.730995,5198.738285 2968.830035,5136.410908 2979.750943,5114.927925 3004.254992,5066.722543 2859.441847,5068.922607 2852.196618,5086.678513 2902.680253,5112.431525 2865.252107,5191.979834"/>
    <poly id="359878639" type="building.yes" color="255,230,230" fill="1" layer="-1.00" shape="2877.858948,5171.133935 2935.730995,5198.738285 2968.830035,5136.410908 2950.252589,5126.909691 2955.491580,5113.762167 2938.817103,5113.713333 2932.142182,5117.965880 2908.881049,5107.189621 2877.858948,5171.133935"/>
    <poly id="359878639#1" type="shop.supermarket" color="237,199,255" fill="1" layer="-1.00" shape="2877.858948,5171.133935 2935.730995,5198.738285 2968.830035,5136.410908 2950.252589,5126.909691 2955.491580,5113.762167 2938.817103,5113.713333 2932.142182,5117.965880 2908.881049,5107.189621 2877.858948,5171.133935"/>
    <poly id="359878641" type="amenity.bank" color="237,199,199" fill="1" layer="-1.00" shape="2968.830035,5136.410908 2979.750943,5114.927925 2955.491580,5113.762167 2950.252589,5126.909691 2968.830035,5136.410908"/>
    <poly id="359878641#1" type="building.yes" color="255,230,230" fill="1" layer="-1.00" shape="2968.830035,5136.410908 2979.750943,5114.927925 2955.491580,5113.762167 2950.252589,5126.909691 2968.830035,5136.410908"/>
    <poly id="359878642" type="amenity.fuel" color="237,199,199" fill="1" layer="-1.00" shape="2860.256157,5081.173554 2860.226068,5072.964638 2879.586790,5073.069207 2879.080950,5080.965594 2860.256157,5081.173554"/>
    <poly id="359878642#1" type="building.yes" color="255,230,230" fill="1" layer="-1.00" shape="2860.256157,5081.173554 2860.226068,5072.964638 2879.586790,5073.069207 2879.080950,5080.965594 2860.256157,5081.173554"/>
    <poly id="360081915" type="building.yes" color="255,230,230" fill="1" layer="-1.00" shape="2873.096060,5090.502563 2876.212495,5092.046980 2875.224637,5094.012998 2879.936069,5096.351179 2880.823133,5094.586228 2885.408794,5096.871073 2887.414642,5092.872074 2875.011517,5086.704459 2873.096060,5090.502563"/>
    <poly id="360081916" type="amenity.parking" color="184,184,179" fill="1" layer="-1.00" shape="2997.137222,5071.901834 2976.946321,5112.082176 2937.192975,5112.410413 2932.591231,5115.510123 2907.894262,5105.399899 2887.065312,5096.334375 2889.403767,5092.307783 2882.759932,5088.272883 2884.154134,5085.059398 2881.407133,5083.830228 2885.709533,5072.603542 2997.137222,5071.901834"/>
    <poly id="394245187" type="building.university" color="255,230,230" fill="1" layer="-1.00" shape="3259.553425,5310.918343 3286.172478,5312.566694 3286.453223,5308.086282 3259.834164,5306.437929 3259.553425,5310.918343"/>
    <poly id="394245188" type="building.university" color="255,230,230" fill="1" layer="-1.00" shape="3243.640559,5323.719277 3302.136013,5326.464858 3303.585601,5296.029929 3245.089860,5293.273256 3243.640559,5323.719277"/>
    <poly id="394245189" type="building.university" color="255,230,230" fill="1" layer="-1.00" shape="3164.262398,5281.818939 3214.074729,5312.425155 3230.189726,5286.503600 3180.387585,5255.886086 3164.262398,5281.818939"/>
    <poly id="394245190" type="building.university" color="255,230,230" fill="1" layer="-1.00" shape="3185.210604,5278.452405 3209.428968,5292.426220 3211.788272,5288.399338 3187.559499,5274.425689 3185.210604,5278.452405"/>
    <poly id="394245191" type="amenity.parking" color="184,184,179" fill="1" layer="-1.00" shape="3018.104163,5090.692432 3005.497416,5087.984641 2985.259850,5113.840832 2933.654985,5218.824869 2972.132956,5239.190497 3010.358831,5165.767104 3019.936050,5172.889431 3026.868672,5162.749862 3029.081363,5137.642374 3017.820810,5138.335941 3018.104163,5090.692432"/>
    <poly id="585958803" type="leisure.park" color="207,245,201" fill="1" layer="-2.00" shape="2076.659905,4799.134810 2068.481439,4790.394662 2060.433736,4759.151156 2060.285040,4726.581668 2065.556592,4721.166326 2086.239468,4718.079799 2096.788474,4716.499908 2132.402079,4711.185652 2140.522468,4716.381541 2143.359929,4749.804344 2150.341738,4792.232844 2107.594418,4796.655806 2076.659905,4799.134810"/>
    <poly id="611049242" type="leisure.park" color="207,245,201" fill="1" layer="-2.00" shape="2085.576708,5454.881060 2195.033374,5442.617473 2177.153287,5330.880804 2070.538920,5344.515915 2085.576708,5454.881060"/>
    <poi id="2063538920" type="amenity.fountain" color="237,199,199" layer="4.00" x="3696.76" y="5069.90"/>
    <poi id="4803870632" type="amenity.fast_food" color="237,199,199" layer="4.00" x="3570.54" y="5554.79"/>
    <poi id="4803875231" type="amenity.fast_food" color="237,199,199" layer="4.00" x="3835.20" y="4969.69"/>
    <poi id="4803875532" type="shop.wine" color="237,199,255" layer="4.00" x="3628.64" y="5215.89"/>
    <poi id="4803875648" type="amenity.pharmacy" color="237,199,199" layer="4.00" x="3685.03" y="5037.79"/>
    <poi id="4803875649" type="shop.wine" color="237,199,255" layer="4.00" x="3596.70" y="5468.90"/>
    <poi id="5307549624" type="amenity.pub" color="237,199,199" layer="4.00" x="2126.73" y="5398.34"/>
    <poi id="5599185575" type="leisure.playground" color="207,245,201" layer="3.00" x="2137.43" y="4781.95"/>
    <poi id="5599185577" type="leisure.pitch" color="207,245,201" layer="3.00" x="2073.27" y="4737.34"/>
    <poi id="5599185577#1" type="sport.soccer" color="79,230,125" layer="3.00" x="2073.27" y="4737.34"/>
    <poi id="5599185578" type="leisure.pitch" color="207,245,201" layer="3.00" x="2079.69" y="4772.98"/>
    <poi id="5599185578#1" type="sport.soccer" color="79,230,125" layer="3.00" x="2079.69" y="4772.98"/>
</additional>
