<?xml version="1.0" encoding="UTF-8"?>

<!-- generated on 10/29/20 17:59:57 by Eclipse SUMO duarouter Version 1.6.0
<configuration xmlns:xsi="http://www.w3.org/2001/XMLSchema-instance" xsi:noNamespaceSchemaLocation="http://sumo.dlr.de/xsd/duarouterConfiguration.xsd">

    <input>
        <net-file value="osm.net.xml"/>
        <route-files value="osm.passenger.trips.xml"/>
    </input>

    <output>
        <output-file value="osm.passenger.trips.xml.tmp"/>
        <write-trips value="true"/>
    </output>

    <time>
        <begin value="0"/>
        <end value="3600.0"/>
    </time>

    <report>
        <no-warnings value="true"/>
        <ignore-errors value="true"/>
        <no-step-log value="true"/>
    </report>

</configuration>
-->

<routes xmlns:xsi="http://www.w3.org/2001/XMLSchema-instance" xsi:noNamespaceSchemaLocation="http://sumo.dlr.de/xsd/routes_file.xsd">
    <vType id="veh_passenger" vClass="passenger"/>
    <trip id="veh0" type="veh_passenger" depart="0.00" departLane="best" departSpeed="max" from="29490159#0" to="-28854642#1"/>
    <trip id="veh1" type="veh_passenger" depart="2.26" departLane="best" from="-29914022#5" to="-29913750#3"/>
    <trip id="veh2" type="veh_passenger" depart="4.52" departLane="best" from="29567093#4" to="29913993#0"/>
    <trip id="veh3" type="veh_passenger" depart="6.77" departLane="best" departSpeed="max" from="376317854#0" to="-29459077#0"/>
    <trip id="veh4" type="veh_passenger" depart="9.03" departLane="best" from="-681883958#0" to="-28854642#4"/>
    <trip id="veh5" type="veh_passenger" depart="11.29" departLane="best" departSpeed="max" from="-29913997" to="29459077#3"/>
    <trip id="veh6" type="veh_passenger" depart="13.55" departLane="best" departSpeed="max" from="-28854642#12" to="-29561996#3"/>
    <trip id="veh7" type="veh_passenger" depart="15.80" departLane="best" departSpeed="max" from="29544932#0" to="29490136#5"/>
    <trip id="veh8" type="veh_passenger" depart="18.06" departLane="best" departSpeed="max" from="-29913999" to="29561907#9"/>
    <trip id="veh9" type="veh_passenger" depart="20.32" departLane="best" departSpeed="max" from="31277446#0" to="-26223153#3"/>
    <trip id="veh10" type="veh_passenger" depart="22.58" departLane="best" departSpeed="max" from="31277446#0" to="29914001#3"/>
    <trip id="veh11" type="veh_passenger" depart="24.83" departLane="best" departSpeed="max" from="-31277534#2" to="-29561861#0"/>
    <trip id="veh12" type="veh_passenger" depart="27.09" departLane="best" from="681867486#5" to="-359677835#0"/>
    <trip id="veh13" type="veh_passenger" depart="29.35" departLane="best" from="-29459207#0" to="-29459116#0"/>
    <trip id="veh14" type="veh_passenger" depart="31.61" departLane="best" from="31277542#1" to="29561963#1"/>
    <trip id="veh15" type="veh_passenger" depart="33.87" departLane="best" departSpeed="max" from="31277446#0" to="29914013#6"/>
    <trip id="veh16" type="veh_passenger" depart="36.12" departLane="best" from="29450214#5" to="701496351#2"/>
    <trip id="veh17" type="veh_passenger" depart="38.38" departLane="best" from="-376317850#5" to="29490152#10"/>
    <trip id="veh18" type="veh_passenger" depart="40.64" departLane="best" from="31277493#0" to="29561996#6"/>
    <trip id="veh19" type="veh_passenger" depart="42.90" departLane="best" from="359677835#6" to="29561861#2"/>
    <trip id="veh20" type="veh_passenger" depart="45.15" departLane="best" departSpeed="max" from="29561978#0" to="-29450201#2"/>
    <trip id="veh21" type="veh_passenger" depart="47.41" departLane="best" from="-29914001#3" to="-31277446#0"/>
    <trip id="veh22" type="veh_passenger" depart="49.67" departLane="best" from="-29459116#9" to="-29913850"/>
    <trip id="veh23" type="veh_passenger" depart="51.93" departLane="best" departSpeed="max" from="29490159#0" to="-376317851#11"/>
    <trip id="veh24" type="veh_passenger" depart="54.18" departLane="best" from="-359677835#9" to="-29567087#1"/>
    <trip id="veh25" type="veh_passenger" depart="56.44" departLane="best" from="-29914019#4" to="681867486#0"/>
    <trip id="veh26" type="veh_passenger" depart="58.70" departLane="best" departSpeed="max" from="29544932#0" to="29561978#3"/>
    <trip id="veh27" type="veh_passenger" depart="60.96" departLane="best" from="-29567093#1" to="29914013#6"/>
    <trip id="veh28" type="veh_passenger" depart="63.22" departLane="best" departSpeed="max" from="-29566989#2" to="-665477223#4"/>
    <trip id="veh29" type="veh_passenger" depart="65.47" departLane="best" from="from_east" to="29567087#3"/>
    <trip id="veh30" type="veh_passenger" depart="67.73" departLane="best" from="29450236#3" to="29913995#2"/>
    <trip id="veh31" type="veh_passenger" depart="69.99" departLane="best" from="-29914001#5" to="-28854642#7"/>
    <trip id="veh32" type="veh_passenger" depart="72.25" departLane="best" from="-31277485#2" to="-29914013#4"/>
    <trip id="veh33" type="veh_passenger" depart="74.50" departLane="best" from="-29913995#1" to="681883958#1"/>
    <trip id="veh34" type="veh_passenger" depart="76.76" departLane="best" departSpeed="max" from="376317851#0" to="-31277520#0"/>
    <trip id="veh35" type="veh_passenger" depart="79.02" departLane="best" departSpeed="max" from="29561841#0" to="-685755225#0"/>
    <trip id="veh36" type="veh_passenger" depart="81.28" departLane="best" from="376317855#5" to="28854753#2"/>
    <trip id="veh37" type="veh_passenger" depart="83.53" departLane="best" from="-29914019#2" to="-29914001#0"/>
    <trip id="veh38" type="veh_passenger" depart="85.79" departLane="best" from="29450236#8" to="-29914012#2"/>
    <trip id="veh39" type="veh_passenger" depart="88.05" departLane="best" departSpeed="max" from="29459165#0" to="376317858#4"/>
    <trip id="veh40" type="veh_passenger" depart="90.31" departLane="best" departSpeed="max" from="-665477223#11" to="-29567093#5"/>
    <trip id="veh41" type="veh_passenger" depart="92.57" departLane="best" from="to_south" to="29459116#11"/>
    <trip id="veh42" type="veh_passenger" depart="94.82" departLane="best" from="-29459165#8" to="-29450201#4"/>
    <trip id="veh43" type="veh_passenger" depart="97.08" departLane="best" departSpeed="max" from="-29490136#5" to="29566920"/>
    <trip id="veh44" type="veh_passenger" depart="99.34" departLane="best" from="29914019#4" to="27844691#1"/>
    <trip id="veh45" type="veh_passenger" depart="101.60" departLane="best" from="-29450236#7" to="-665477223#6"/>
    <trip id="veh46" type="veh_passenger" depart="103.85" departLane="best" from="to_east" to="29459165#9"/>
    <trip id="veh47" type="veh_passenger" depart="106.11" departLane="best" from="685755222" to="376317851#5"/>
    <trip id="veh48" type="veh_passenger" depart="108.37" departLane="best" from="-26647538#1" to="29914012#5"/>
    <trip id="veh49" type="veh_passenger" depart="110.63" departLane="best" from="29561907#6" to="29459207#6"/>
    <trip id="veh50" type="veh_passenger" depart="112.89" departLane="best" from="-29914019#4" to="29567087#4"/>
    <trip id="veh51" type="veh_passenger" depart="115.14" departLane="best" from="-29544932#1" to="28854642#5"/>
    <trip id="veh52" type="veh_passenger" depart="117.40" departLane="best" from="26223153#4" to="68441979#3"/>
    <trip id="veh53" type="veh_passenger" depart="119.66" departLane="best" departSpeed="max" from="376317851#0" to="-29914012#3"/>
    <trip id="veh54" type="veh_passenger" depart="121.92" departLane="best" from="28854753#2" to="-29561963#0"/>
    <trip id="veh55" type="veh_passenger" depart="124.17" departLane="best" from="376317855#4" to="376317854#4"/>
    <trip id="veh56" type="veh_passenger" depart="126.43" departLane="best" departSpeed="max" from="-31277476#2" to="29567087#2"/>
    <trip id="veh57" type="veh_passenger" depart="128.69" departLane="best" from="29459207#7" to="-29561841#5"/>
    <trip id="veh58" type="veh_passenger" depart="130.95" departLane="best" from="29913995#1" to="29490136#0"/>
    <trip id="veh59" type="veh_passenger" depart="133.20" departLane="best" from="29914012#1" to="29459207#1"/>
    <trip id="veh60" type="veh_passenger" depart="135.46" departLane="best" from="-26223153#0" to="-31277534#1"/>
    <trip id="veh61" type="veh_passenger" depart="137.72" departLane="best" departSpeed="max" from="-27844691#1" to="679261835"/>
    <trip id="veh62" type="veh_passenger" depart="139.98" departLane="best" departSpeed="max" from="376317851#0" to="31277549"/>
    <trip id="veh63" type="veh_passenger" depart="142.24" departLane="best" from="-31277481#1" to="-29450214#0"/>
    <trip id="veh64" type="veh_passenger" depart="144.49" departLane="best" departSpeed="max" from="376317851#0" to="68441979#1"/>
    <trip id="veh65" type="veh_passenger" depart="146.75" departLane="best" from="-29459165#2" to="29450225#1"/>
    <trip id="veh66" type="veh_passenger" depart="149.01" departLane="best" from="-29459077#3" to="31277452#4"/>
    <trip id="veh67" type="veh_passenger" depart="151.27" departLane="best" from="29914001#3" to="-29459207#4"/>
    <trip id="veh68" type="veh_passenger" depart="153.52" departLane="best" from="28854642#2" to="29490152#1"/>
    <trip id="veh69" type="veh_passenger" depart="155.78" departLane="best" from="-29914019#2" to="376317854#5"/>
    <trip id="veh70" type="veh_passenger" depart="158.04" departLane="best" from="-681883958#2" to="-29567087#4"/>
    <trip id="veh71" type="veh_passenger" depart="160.30" departLane="best" from="29450214#8" to="29914013#6"/>
    <trip id="veh72" type="veh_passenger" depart="162.55" departLane="best" departSpeed="max" from="-29913990#4" to="-31277493#0"/>
    <trip id="veh73" type="veh_passenger" depart="164.81" departLane="best" from="to_east" to="29913750#1"/>
    <trip id="veh74" type="veh_passenger" depart="167.07" departLane="best" departSpeed="max" from="-685755225#7" to="29459165#0"/>
    <trip id="veh75" type="veh_passenger" depart="169.33" departLane="best" from="-29561861#3" to="-29913756#1"/>
    <trip id="veh76" type="veh_passenger" depart="171.59" departLane="best" from="-31277534#1" to="29561907#8"/>
    <trip id="veh77" type="veh_passenger" depart="173.84" departLane="best" from="-29914001#6" to="-29567093#6"/>
    <trip id="veh78" type="veh_passenger" depart="176.10" departLane="best" from="-29459116#1" to="29566989#0"/>
    <trip id="veh79" type="veh_passenger" depart="178.36" departLane="best" from="-29914001#5" to="376317859#5"/>
    <trip id="veh80" type="veh_passenger" depart="180.62" departLane="best" from="359677835#2" to="-29450218"/>
    <trip id="veh81" type="veh_passenger" depart="182.87" departLane="best" departSpeed="max" from="-29914005#5" to="29913990#1"/>
    <trip id="veh82" type="veh_passenger" depart="185.13" departLane="best" departSpeed="max" from="-29913995#2" to="-29459207#9"/>
    <trip id="veh83" type="veh_passenger" depart="187.39" departLane="best" departSpeed="max" from="665477223#0" to="29544932#2"/>
    <trip id="veh84" type="veh_passenger" depart="189.65" departLane="best" from="28854642#10" to="31277484"/>
    <trip id="veh85" type="veh_passenger" depart="191.90" departLane="best" departSpeed="max" from="31277446#0" to="-29561978#3"/>
    <trip id="veh86" type="veh_passenger" depart="194.16" departLane="best" from="-29459207#2" to="28854642#12"/>
    <trip id="veh87" type="veh_passenger" depart="196.42" departLane="best" from="-681883958#2" to="29450201#0"/>
    <trip id="veh88" type="veh_passenger" depart="198.68" departLane="best" from="29567087#2" to="29913990#4"/>
    <trip id="veh89" type="veh_passenger" depart="200.94" departLane="best" from="701496351#1" to="-29459116#10"/>
    <trip id="veh90" type="veh_passenger" depart="203.19" departLane="best" from="-665477223#5" to="-359677835#1"/>
    <trip id="veh91" type="veh_passenger" depart="205.45" departLane="best" from="359677835#6" to="-29914001#2"/>
    <trip id="veh92" type="veh_passenger" depart="207.71" departLane="best" from="-29913869" to="28854745#6"/>
    <trip id="veh93" type="veh_passenger" depart="209.97" departLane="best" from="-681883958#0" to="-29914022#5"/>
    <trip id="veh94" type="veh_passenger" depart="212.22" departLane="best" departSpeed="max" from="-29914012#5" to="677007645"/>
    <trip id="veh95" type="veh_passenger" depart="214.48" departLane="best" departSpeed="max" from="-849311993#4" to="376317851#5"/>
    <trip id="veh96" type="veh_passenger" depart="216.74" departLane="best" from="29450236#1" to="-29450201#7"/>
    <trip id="veh97" type="veh_passenger" depart="219.00" departLane="best" from="to_west" to="359677835#2"/>
    <trip id="veh98" type="veh_passenger" depart="221.25" departLane="best" from="31277542#4" to="-29561881#1"/>
    <trip id="veh99" type="veh_passenger" depart="223.51" departLane="best" from="28854745#12" to="-29567087#6"/>
    <trip id="veh100" type="veh_passenger" depart="225.77" departLane="best" from="-665477223#3" to="-29450214#0"/>
    <trip id="veh101" type="veh_passenger" depart="228.03" departLane="best" from="-376317850#5" to="849311993#4"/>
    <trip id="veh102" type="veh_passenger" depart="230.29" departLane="best" from="-29914019#2" to="31277481#2"/>
    <trip id="veh103" type="veh_passenger" depart="232.54" departLane="best" from="26223153#5" to="27844691#1"/>
    <trip id="veh104" type="veh_passenger" depart="234.80" departLane="best" from="29450236#2" to="29914012#4"/>
    <trip id="veh105" type="veh_passenger" depart="237.06" departLane="best" from="-29562084#3" to="-31277452#4"/>
    <trip id="veh106" type="veh_passenger" depart="239.32" departLane="best" from="685755220#2" to="29561861#5"/>
    <trip id="veh107" type="veh_passenger" depart="241.57" departLane="best" departSpeed="max" from="29450218" to="29914022#7"/>
    <trip id="veh108" type="veh_passenger" depart="243.83" departLane="best" from="-29450236#13" to="29561907#2"/>
    <trip id="veh109" type="veh_passenger" depart="246.09" departLane="best" from="28854753#4" to="376317850#7"/>
    <trip id="veh110" type="veh_passenger" depart="248.35" departLane="best" from="-29562084#6" to="685755220#3"/>
    <trip id="veh111" type="veh_passenger" depart="250.60" departLane="best" from="-29459116#9" to="-29561978#0"/>
    <trip id="veh112" type="veh_passenger" depart="252.86" departLane="best" from="29459165#4" to="29913990#4"/>
    <trip id="veh113" type="veh_passenger" depart="255.12" departLane="best" departSpeed="max" from="-29914005#5" to="-29459165#6"/>
    <trip id="veh114" type="veh_passenger" depart="257.38" departLane="best" departSpeed="max" from="376317854#0" to="-29914001#0"/>
    <trip id="veh115" type="veh_passenger" depart="259.64" departLane="best" from="29459165#3" to="29562084#0"/>
    <trip id="veh116" type="veh_passenger" depart="261.89" departLane="best" departSpeed="max" from="-679765860" to="29561907#2"/>
    <trip id="veh117" type="veh_passenger" depart="264.15" departLane="best" from="29450201#7" to="679765860"/>
    <trip id="veh118" type="veh_passenger" depart="266.41" departLane="best" from="-29913993#0" to="29914012#2"/>
    <trip id="veh119" type="veh_passenger" depart="268.67" departLane="best" departSpeed="max" from="-29914005#5" to="-685755225#0"/>
    <trip id="veh120" type="veh_passenger" depart="270.92" departLane="best" departSpeed="max" from="29561881#0" to="-31277477#0"/>
    <trip id="veh121" type="veh_passenger" depart="273.18" departLane="best" from="-31277485#3" to="31277418#1"/>
    <trip id="veh122" type="veh_passenger" depart="275.44" departLane="best" from="-29459116#11" to="28854753#2"/>
    <trip id="veh123" type="veh_passenger" depart="277.70" departLane="best" from="-29459116#2" to="-29567087#6"/>
    <trip id="veh124" type="veh_passenger" depart="279.95" departLane="best" from="-29914019#2" to="679765860"/>
    <trip id="veh125" type="veh_passenger" depart="282.21" departLane="best" from="376317851#10" to="376317855#4"/>
    <trip id="veh126" type="veh_passenger" depart="284.47" departLane="best" from="-359677835#8" to="-29561861#0"/>
    <trip id="veh127" type="veh_passenger" depart="286.73" departLane="best" from="31277520#1" to="29914005#1"/>
    <trip id="veh128" type="veh_passenger" depart="288.99" departLane="best" from="29490136#1" to="849311993#4"/>
    <trip id="veh129" type="veh_passenger" depart="291.24" departLane="best" departSpeed="max" from="29561841#0" to="-26223153#4"/>
    <trip id="veh130" type="veh_passenger" depart="293.50" departLane="best" departSpeed="max" from="29561861#0" to="681867486#3"/>
    <trip id="veh131" type="veh_passenger" depart="295.76" departLane="best" from="-29561940#2" to="-29459165#13"/>
    <trip id="veh132" type="veh_passenger" depart="298.02" departLane="best" departSpeed="max" from="-29490136#5" to="29490152#10"/>
    <trip id="veh133" type="veh_passenger" depart="300.27" departLane="best" from="-29914022#1" to="29561963#3"/>
    <trip id="veh134" type="veh_passenger" depart="302.53" departLane="best" from="29561996#6" to="-29562084#4"/>
    <trip id="veh135" type="veh_passenger" depart="304.79" departLane="best" departSpeed="max" from="29490159#0" to="-29914012#4"/>
    <trip id="veh136" type="veh_passenger" depart="307.05" departLane="best" from="28854745#3" to="376317859#5"/>
    <trip id="veh137" type="veh_passenger" depart="309.31" departLane="best" departSpeed="max" from="31277542#0" to="-29459077#3"/>
    <trip id="veh138" type="veh_passenger" depart="311.56" departLane="best" from="-26223153#3" to="31277476#2"/>
    <trip id="veh139" type="veh_passenger" depart="313.82" departLane="best" departSpeed="max" from="29490159#0" to="-29914012#1"/>
    <trip id="veh140" type="veh_passenger" depart="316.08" departLane="best" from="29913750#3" to="29490152#10"/>
    <trip id="veh141" type="veh_passenger" depart="318.34" departLane="best" from="-685755222" to="-26265219#0"/>
    <trip id="veh142" type="veh_passenger" depart="320.59" departLane="best" from="-29459116#4" to="376317855#6"/>
    <trip id="veh143" type="veh_passenger" depart="322.85" departLane="best" from="376317854#4" to="29490136#5"/>
    <trip id="veh144" type="veh_passenger" depart="325.11" departLane="best" from="31277525#0" to="29561907#1"/>
    <trip id="veh145" type="veh_passenger" depart="327.37" departLane="best" from="-29561996#1" to="-29459207#3"/>
    <trip id="veh146" type="veh_passenger" depart="329.62" departLane="best" departSpeed="max" from="-31277481#2" to="376317859#0"/>
    <trip id="veh147" type="veh_passenger" depart="331.88" departLane="best" from="29914022#6" to="376317851#5"/>
    <trip id="veh148" type="veh_passenger" depart="334.14" departLane="best" departSpeed="max" from="-29914012#5" to="-29459116#5"/>
    <trip id="veh149" type="veh_passenger" depart="336.40" departLane="best" from="29914012#3" to="376317855#6"/>
    <trip id="veh150" type="veh_passenger" depart="338.66" departLane="best" from="-677007645" to="29562084#1"/>
    <trip id="veh151" type="veh_passenger" depart="340.91" departLane="best" from="-29562084#3" to="679261835"/>
    <trip id="veh152" type="veh_passenger" depart="343.17" departLane="best" from="359677835#9" to="701496351#2"/>
    <trip id="veh153" type="veh_passenger" depart="345.43" departLane="best" from="31277448#0" to="376317855#5"/>
    <trip id="veh154" type="veh_passenger" depart="347.69" departLane="best" departSpeed="max" from="-28854642#12" to="29914019#3"/>
    <trip id="veh155" type="veh_passenger" depart="349.94" departLane="best" from="-31277526" to="679765860"/>
    <trip id="veh156" type="veh_passenger" depart="352.20" departLane="best" from="31277418#1" to="376317851#8"/>
    <trip id="veh157" type="veh_passenger" depart="354.46" departLane="best" from="31277448#0" to="-29914013#3"/>
    <trip id="veh158" type="veh_passenger" depart="356.72" departLane="best" from="29914014#2" to="-29459165#0"/>
    <trip id="veh159" type="veh_passenger" depart="358.97" departLane="best" from="376317850#4" to="376317851#2"/>
    <trip id="veh160" type="veh_passenger" depart="361.23" departLane="best" departSpeed="max" from="-29913999" to="31277542#4"/>
    <trip id="veh161" type="veh_passenger" depart="363.49" departLane="best" departSpeed="max" from="26647538#0" to="-31277485#1"/>
    <trip id="veh162" type="veh_passenger" depart="365.75" departLane="best" from="29914022#5" to="-29913756#4"/>
    <trip id="veh163" type="veh_passenger" depart="368.01" departLane="best" departSpeed="max" from="-28854642#12" to="-29561996#0"/>
    <trip id="veh164" type="veh_passenger" depart="370.26" departLane="best" departSpeed="max" from="-31277493#4" to="376317854#1"/>
    <trip id="veh166" type="veh_passenger" depart="374.78" departLane="best" from="29490159#1" to="-685755225#4"/>
    <trip id="veh167" type="veh_passenger" depart="377.04" departLane="best" from="685755225#6" to="29459207#5"/>
    <trip id="veh168" type="veh_passenger" depart="379.29" departLane="best" departSpeed="max" from="665477223#0" to="-29459165#13"/>
    <trip id="veh169" type="veh_passenger" depart="381.55" departLane="best" from="685755221" to="-29561963#0"/>
    <trip id="veh170" type="veh_passenger" depart="383.81" departLane="best" from="68441979#1" to="-29914013#0"/>
    <trip id="veh171" type="veh_passenger" depart="386.07" departLane="best" departSpeed="max" from="-29490136#5" to="28854642#5"/>
    <trip id="veh172" type="veh_passenger" depart="388.32" departLane="best" from="29567087#2" to="-31277493#3"/>
    <trip id="veh173" type="veh_passenger" depart="390.58" departLane="best" from="29459207#4" to="29459116#3"/>
    <trip id="veh174" type="veh_passenger" depart="392.84" departLane="best" from="-376317851#1" to="29561861#1"/>
    <trip id="veh175" type="veh_passenger" depart="395.10" departLane="best" from="-29914013#4" to="29914005#5"/>
    <trip id="veh176" type="veh_passenger" depart="397.36" departLane="best" from="-26223153#1" to="679261833"/>
    <trip id="veh177" type="veh_passenger" depart="399.61" departLane="best" from="29450214#7" to="29914012#5"/>
    <trip id="veh178" type="veh_passenger" depart="401.87" departLane="best" from="29913756#0" to="29913990#3"/>
    <trip id="veh179" type="veh_passenger" depart="404.13" departLane="best" from="-359677835#11" to="-29450218"/>
    <trip id="veh180" type="veh_passenger" depart="406.39" departLane="best" departSpeed="max" from="29561861#0" to="-31277542#3"/>
    <trip id="veh181" type="veh_passenger" depart="408.64" departLane="best" from="-31277485#0" to="376317850#3"/>
    <trip id="veh182" type="veh_passenger" depart="410.90" departLane="best" from="29562084#2" to="-31277477#1"/>
    <trip id="veh183" type="veh_passenger" depart="413.16" departLane="best" departSpeed="max" from="-31277481#2" to="26223153#2"/>
    <trip id="veh184" type="veh_passenger" depart="415.42" departLane="best" from="-665477223#4" to="-31277452#1"/>
    <trip id="veh185" type="veh_passenger" depart="417.67" departLane="best" from="-29561924#4" to="27844691#0"/>
    <trip id="veh186" type="veh_passenger" depart="419.93" departLane="best" from="665477223#10" to="29913993#1"/>
    <trip id="veh187" type="veh_passenger" depart="422.19" departLane="best" from="376317854#3" to="29561996#2"/>
    <trip id="veh188" type="veh_passenger" depart="424.45" departLane="best" from="-31277477#0" to="29490136#5"/>
    <trip id="veh189" type="veh_passenger" depart="426.71" departLane="best" from="-26223153#0" to="-31277446#0"/>
    <trip id="veh190" type="veh_passenger" depart="428.96" departLane="best" from="-685755225#2" to="29561881#1"/>
    <trip id="veh191" type="veh_passenger" depart="431.22" departLane="best" departSpeed="max" from="29561841#0" to="28854753#9"/>
    <trip id="veh192" type="veh_passenger" depart="433.48" departLane="best" departSpeed="max" from="-849311993#4" to="-29567087#6"/>
    <trip id="veh193" type="veh_passenger" depart="435.74" departLane="best" from="28854642#11" to="376317859#1"/>
    <trip id="veh194" type="veh_passenger" depart="437.99" departLane="best" from="29914022#5" to="-29561924#3"/>
    <trip id="veh195" type="veh_passenger" depart="440.25" departLane="best" from="-29459165#13" to="29459116#8"/>
    <trip id="veh196" type="veh_passenger" depart="442.51" departLane="best" departSpeed="max" from="29490159#0" to="-359677835#0"/>
    <trip id="veh197" type="veh_passenger" depart="444.77" departLane="best" from="31277477#1" to="29914022#7"/>
    <trip id="veh198" type="veh_passenger" depart="447.02" departLane="best" departSpeed="max" from="29561881#0" to="-29913756#0"/>
    <trip id="veh199" type="veh_passenger" depart="449.28" departLane="best" from="-29913990#3" to="-28854642#0"/>
    <trip id="veh200" type="veh_passenger" depart="451.54" departLane="best" from="-29914012#1" to="29450211#3"/>
    <trip id="veh201" type="veh_passenger" depart="453.80" departLane="best" from="31277542#5" to="-29450236#1"/>
    <trip id="veh202" type="veh_passenger" depart="456.06" departLane="best" departSpeed="max" from="-679342038" to="29566976#1"/>
    <trip id="veh203" type="veh_passenger" depart="458.31" departLane="best" from="28854753#0" to="-29913993#0"/>
    <trip id="veh204" type="veh_passenger" depart="460.57" departLane="best" departSpeed="max" from="29561841#0" to="-26223153#2"/>
    <trip id="veh205" type="veh_passenger" depart="462.83" departLane="best" from="29913850" to="31277476#2"/>
    <trip id="veh206" type="veh_passenger" depart="465.09" departLane="best" from="-29490136#4" to="27844691#1"/>
    <trip id="veh207" type="veh_passenger" depart="467.34" departLane="best" from="-29567093#6" to="68441979#3"/>
    <trip id="veh208" type="veh_passenger" depart="469.60" departLane="best" from="29450201#0" to="-29450201#7"/>
    <trip id="veh209" type="veh_passenger" depart="471.86" departLane="best" departSpeed="max" from="-29914012#5" to="376317850#4"/>
    <trip id="veh210" type="veh_passenger" depart="474.12" departLane="best" from="26265219#1" to="31277520#1"/>
    <trip id="veh211" type="veh_passenger" depart="476.37" departLane="best" from="29561861#2" to="849311993#4"/>
    <trip id="veh212" type="veh_passenger" depart="478.63" departLane="best" from="29459165#4" to="68441979#3"/>
    <trip id="veh213" type="veh_passenger" depart="480.89" departLane="best" departSpeed="max" from="376317854#0" to="29561978#6"/>
    <trip id="veh214" type="veh_passenger" depart="483.15" departLane="best" from="29562084#1" to="29459077#2"/>
    <trip id="veh215" type="veh_passenger" depart="485.41" departLane="best" from="31277493#1" to="29490136#5"/>
    <trip id="veh216" type="veh_passenger" depart="487.66" departLane="best" departSpeed="max" from="376317854#0" to="29914022#2"/>
    <trip id="veh217" type="veh_passenger" depart="489.92" departLane="best" from="28854642#2" to="-29914008#2"/>
    <trip id="veh218" type="veh_passenger" depart="492.18" departLane="best" from="-29914012#4" to="29567087#1"/>
    <trip id="veh219" type="veh_passenger" depart="494.44" departLane="best" from="29914001#3" to="29459165#12"/>
    <trip id="veh220" type="veh_passenger" depart="496.69" departLane="best" from="29490152#7" to="-29914019#4"/>
    <trip id="veh221" type="veh_passenger" depart="498.95" departLane="best" from="-29459116#7" to="-31277418#2"/>
    <trip id="veh222" type="veh_passenger" depart="501.21" departLane="best" from="-29914022#1" to="-31277527"/>
    <trip id="veh223" type="veh_passenger" depart="503.47" departLane="best" from="29450214#9" to="-29544932#0"/>
    <trip id="veh224" type="veh_passenger" depart="505.73" departLane="best" from="-29914003" to="29913999"/>
    <trip id="veh225" type="veh_passenger" depart="507.98" departLane="best" from="29561978#2" to="-29450214#6"/>
    <trip id="veh226" type="veh_passenger" depart="510.24" departLane="best" departSpeed="max" from="-679261835" to="29490136#3"/>
    <trip id="veh227" type="veh_passenger" depart="512.50" departLane="best" departSpeed="max" from="-679342038" to="-29566989#0"/>
    <trip id="veh228" type="veh_passenger" depart="514.76" departLane="best" departSpeed="max" from="-679765860" to="376317859#3"/>
    <trip id="veh229" type="veh_passenger" depart="517.01" departLane="best" from="359677835#1" to="31277476#0"/>
    <trip id="veh230" type="veh_passenger" depart="519.27" departLane="best" departSpeed="max" from="-376317850#7" to="-26223153#2"/>
    <trip id="veh231" type="veh_passenger" depart="521.53" departLane="best" from="-31277548#0" to="31277433"/>
    <trip id="veh232" type="veh_passenger" depart="523.79" departLane="best" departSpeed="max" from="359677835#0" to="68441979#3"/>
    <trip id="veh233" type="veh_passenger" depart="526.04" departLane="best" departSpeed="max" from="-679765860" to="29914022#7"/>
    <trip id="veh234" type="veh_passenger" depart="528.30" departLane="best" from="29450225#1" to="29561963#1"/>
    <trip id="veh235" type="veh_passenger" depart="530.56" departLane="best" departSpeed="max" from="-29913999" to="-29567093#6"/>
    <trip id="veh236" type="veh_passenger" depart="532.82" departLane="best" departSpeed="max" from="-685755225#7" to="-28854642#2"/>
    <trip id="veh237" type="veh_passenger" depart="535.08" departLane="best" from="-31277531#3" to="29913993#1"/>
    <trip id="veh238" type="veh_passenger" depart="537.33" departLane="best" from="-665477223#7" to="-29561881#0"/>
    <trip id="veh239" type="veh_passenger" depart="539.59" departLane="best" departSpeed="max" from="28854642#0" to="-29459207#3"/>
    <trip id="veh240" type="veh_passenger" depart="541.85" departLane="best" from="29490152#11" to="-28854642#11"/>
    <trip id="veh241" type="veh_passenger" depart="544.11" departLane="best" from="-665477223#1" to="29490159#1"/>
    <trip id="veh242" type="veh_passenger" depart="546.36" departLane="best" from="-28854642#2" to="29567087#6"/>
    <trip id="veh243" type="veh_passenger" depart="548.62" departLane="best" from="-29561940#4" to="28854753#5"/>
    <trip id="veh244" type="veh_passenger" depart="550.88" departLane="best" departSpeed="max" from="-29913995#2" to="-31277542#0"/>