<?xml version="1.0" encoding="UTF-8"?>

<!-- generated on 10/19/20 18:25:13 by Eclipse SUMO netedit Version 1.6.0
<configuration xmlns:xsi="http://www.w3.org/2001/XMLSchema-instance" xsi:noNamespaceSchemaLocation="http://sumo.dlr.de/xsd/netconvertConfiguration.xsd">

    <input>
        <sumo-net-file value="D:\Files\Desktop\circuito_colonias_super_aki\osm.net.xml"/>
    </input>

    <output>
        <output-file value="D:\Files\Desktop\circuito_colonias_super_aki\osm.net.xml"/>
        <output.street-names value="true"/>
    </output>

    <processing>
        <geometry.min-radius.fix.railways value="false"/>
        <geometry.max-grade.fix value="false"/>
        <offset.disable-normalization value="true"/>
        <lefthand value="false"/>
    </processing>

    <junctions>
        <no-turnarounds value="true"/>
        <junctions.corner-detail value="5"/>
        <junctions.limit-turn-speed value="5.5"/>
        <rectangular-lane-cut value="false"/>
    </junctions>

    <pedestrian>
        <walkingareas value="false"/>
    </pedestrian>

    <report>
        <aggregate-warnings value="5"/>
    </report>

</configuration>
-->

<net version="1.6" junctionCornerDetail="5" limitTurnSpeed="5.50" xmlns:xsi="http://www.w3.org/2001/XMLSchema-instance" xsi:noNamespaceSchemaLocation="http://sumo.dlr.de/xsd/net_file.xsd">

    <location netOffset="-224805.89,-2312468.65" convBoundary="0.00,0.00,4895.11,6617.73" origBoundary="-89.646111,20.892785,-89.598289,20.952108" projParameter="+proj=utm +zone=16 +ellps=WGS84 +datum=WGS84 +units=m +no_defs"/>

    <type id="highway.bridleway" priority="1" numLanes="1" speed="2.78" allow="pedestrian" oneway="1" width="2.00"/>
    <type id="highway.bus_guideway" priority="1" numLanes="1" speed="27.78" allow="bus" oneway="1"/>
    <type id="highway.cycleway" priority="1" numLanes="1" speed="8.33" allow="bicycle" oneway="0" width="1.00"/>
    <type id="highway.footway" priority="1" numLanes="1" speed="2.78" allow="pedestrian" oneway="1" width="2.00"/>
    <type id="highway.ford" priority="1" numLanes="1" speed="2.78" allow="army" oneway="0"/>
    <type id="highway.living_street" priority="2" numLanes="1" speed="2.78" disallow="tram rail_urban rail rail_electric rail_fast ship" oneway="0"/>
    <type id="highway.motorway" priority="14" numLanes="2" speed="39.44" allow="private emergency authority army vip passenger hov taxi bus coach delivery truck trailer motorcycle evehicle custom1 custom2" oneway="1"/>
    <type id="highway.motorway_link" priority="9" numLanes="1" speed="22.22" allow="private emergency authority army vip passenger hov taxi bus coach delivery truck trailer motorcycle evehicle custom1 custom2" oneway="1"/>
    <type id="highway.path" priority="1" numLanes="1" speed="2.78" allow="pedestrian bicycle" oneway="1" width="2.00"/>
    <type id="highway.pedestrian" priority="1" numLanes="1" speed="2.78" allow="pedestrian" oneway="1" width="2.00"/>
    <type id="highway.primary" priority="12" numLanes="2" speed="27.78" disallow="tram rail_urban rail rail_electric rail_fast ship" oneway="0"/>
    <type id="highway.primary_link" priority="7" numLanes="1" speed="22.22" disallow="tram rail_urban rail rail_electric rail_fast ship" oneway="0"/>
    <type id="highway.raceway" priority="15" numLanes="2" speed="83.33" allow="vip" oneway="0"/>
    <type id="highway.residential" priority="3" numLanes="1" speed="13.89" disallow="tram rail_urban rail rail_electric rail_fast ship" oneway="0"/>
    <type id="highway.secondary" priority="11" numLanes="1" speed="27.78" disallow="tram rail_urban rail rail_electric rail_fast ship" oneway="0"/>
    <type id="highway.secondary_link" priority="6" numLanes="1" speed="22.22" disallow="tram rail_urban rail rail_electric rail_fast ship" oneway="0"/>
    <type id="highway.service" priority="1" numLanes="1" speed="5.56" allow="pedestrian delivery bicycle" oneway="0"/>
    <type id="highway.stairs" priority="1" numLanes="1" speed="1.39" allow="pedestrian" oneway="1" width="2.00"/>
    <type id="highway.step" priority="1" numLanes="1" speed="1.39" allow="pedestrian" oneway="1" width="2.00"/>
    <type id="highway.steps" priority="1" numLanes="1" speed="1.39" allow="pedestrian" oneway="1" width="2.00"/>
    <type id="highway.tertiary" priority="10" numLanes="1" speed="22.22" disallow="tram rail_urban rail rail_electric rail_fast ship" oneway="0"/>
    <type id="highway.tertiary_link" priority="5" numLanes="1" speed="22.22" disallow="tram rail_urban rail rail_electric rail_fast ship" oneway="0"/>
    <type id="highway.track" priority="1" numLanes="1" speed="5.56" disallow="tram rail_urban rail rail_electric rail_fast ship" oneway="0"/>
    <type id="highway.trunk" priority="13" numLanes="2" speed="27.78" disallow="pedestrian bicycle tram rail_urban rail rail_electric rail_fast ship" oneway="0"/>
    <type id="highway.trunk_link" priority="8" numLanes="1" speed="22.22" disallow="pedestrian bicycle tram rail_urban rail rail_electric rail_fast ship" oneway="0"/>
    <type id="highway.unclassified" priority="4" numLanes="1" speed="13.89" disallow="tram rail_urban rail rail_electric rail_fast ship" oneway="0"/>
    <type id="highway.unsurfaced" priority="1" numLanes="1" speed="8.33" disallow="tram rail_urban rail rail_electric rail_fast ship" oneway="0"/>
    <type id="railway.highspeed" priority="21" numLanes="1" speed="69.44" allow="rail_fast" oneway="1"/>
    <type id="railway.light_rail" priority="19" numLanes="1" speed="27.78" allow="rail_urban" oneway="1"/>
    <type id="railway.preserved" priority="16" numLanes="1" speed="27.78" allow="rail" oneway="1"/>
    <type id="railway.rail" priority="20" numLanes="1" speed="44.44" allow="rail" oneway="1"/>
    <type id="railway.subway" priority="18" numLanes="1" speed="27.78" allow="rail_urban" oneway="1"/>
    <type id="railway.tram" priority="17" numLanes="1" speed="13.89" allow="tram" oneway="1"/>

    <edge id=":2474074970_0" function="internal">
        <lane id=":2474074970_0_0" index="0" disallow="tram rail_urban rail rail_electric rail_fast ship" speed="3.65" length="4.67" shape="1816.51,3112.56 1816.94,3111.18 1817.60,3110.57 1818.48,3110.73 1819.59,3111.66"/>
    </edge>
    <edge id=":287136257_0" function="internal">
        <lane id=":287136257_0_0" index="0" disallow="tram rail_urban rail rail_electric rail_fast ship" speed="3.65" length="4.67" shape="2707.05,5870.17 2705.74,5870.77 2704.85,5870.69 2704.38,5869.93 2704.33,5868.49"/>
    </edge>
    <edge id=":287666184_0" function="internal">
        <lane id=":287666184_0_0" index="0" disallow="tram rail_urban rail rail_electric rail_fast ship" speed="3.65" length="4.67" shape="1734.35,4481.82 1735.01,4480.54 1735.76,4480.05 1736.60,4480.36 1737.53,4481.46"/>
    </edge>
    <edge id=":287667298_0" function="internal">
        <lane id=":287667298_0_0" index="0" disallow="tram rail_urban rail rail_electric rail_fast ship" speed="7.53" length="10.73" shape="2029.41,5065.64 2028.54,5062.88 2027.02,5060.91 2024.84,5059.71 2022.01,5059.29"/>
    </edge>
    <edge id=":287667298_1" function="internal">
        <lane id=":287667298_1_0" index="0" disallow="tram rail_urban rail rail_electric rail_fast ship" speed="13.89" length="15.44" shape="2029.41,5065.64 2027.16,5050.36"/>
    </edge>
    <edge id=":287667298_2" function="internal">
        <lane id=":287667298_2_0" index="0" disallow="tram rail_urban rail rail_electric rail_fast ship" speed="7.76" length="14.79" shape="2029.41,5065.64 2029.30,5061.50 2030.58,5058.51 2033.27,5056.67 2037.35,5055.99"/>
    </edge>
    <edge id=":287667298_3" function="internal">
        <lane id=":287667298_3_0" index="0" disallow="tram rail_urban rail rail_electric rail_fast ship" speed="3.65" length="4.67" shape="2029.41,5065.64 2030.00,5064.32 2030.72,5063.79 2031.57,5064.05 2032.57,5065.09"/>
    </edge>
    <edge id=":287667298_4" function="internal">
        <lane id=":287667298_4_0" index="0" disallow="tram rail_urban rail rail_electric rail_fast ship" speed="6.21" length="9.05" shape="2037.42,5059.19 2034.92,5059.61 2033.28,5060.73 2032.49,5062.56 2032.57,5065.09"/>
    </edge>
    <edge id=":287667298_5" function="internal">
        <lane id=":287667298_5_0" index="0" disallow="tram rail_urban rail rail_electric rail_fast ship" speed="13.89" length="15.41" shape="2037.42,5059.19 2022.01,5059.29"/>
    </edge>
    <edge id=":287667298_6" function="internal">
        <lane id=":287667298_6_0" index="0" disallow="tram rail_urban rail rail_electric rail_fast ship" speed="8.55" length="6.42" shape="2037.42,5059.19 2033.34,5058.71 2031.30,5057.63"/>
    </edge>
    <edge id=":287667298_7" function="internal">
        <lane id=":287667298_7_0" index="0" disallow="tram rail_urban rail rail_electric rail_fast ship" speed="3.65" length="2.34" shape="2037.42,5059.19 2036.21,5058.42 2035.79,5057.63"/>
    </edge>
    <edge id=":287667298_16" function="internal">
        <lane id=":287667298_16_0" index="0" disallow="tram rail_urban rail rail_electric rail_fast ship" speed="8.55" length="8.71" shape="2031.30,5057.63 2030.27,5057.08 2028.21,5054.30 2027.16,5050.36"/>
    </edge>
    <edge id=":287667298_17" function="internal">
        <lane id=":287667298_17_0" index="0" disallow="tram rail_urban rail rail_electric rail_fast ship" speed="3.65" length="2.34" shape="2035.79,5057.63 2036.17,5056.82 2037.35,5055.99"/>
    </edge>
    <edge id=":287667298_8" function="internal">
        <lane id=":287667298_8_0" index="0" disallow="tram rail_urban rail rail_electric rail_fast ship" speed="7.16" length="10.32" shape="2030.34,5049.98 2031.05,5052.66 2032.46,5054.56 2034.56,5055.67 2037.35,5055.99"/>
    </edge>
    <edge id=":287667298_9" function="internal">
        <lane id=":287667298_9_0" index="0" disallow="tram rail_urban rail rail_electric rail_fast ship" speed="13.89" length="15.28" shape="2030.34,5049.98 2032.57,5065.09"/>
    </edge>
    <edge id=":287667298_10" function="internal">
        <lane id=":287667298_10_0" index="0" disallow="tram rail_urban rail rail_electric rail_fast ship" speed="7.79" length="14.71" shape="2030.34,5049.98 2030.24,5054.08 2028.83,5057.01 2026.08,5058.74 2022.01,5059.29"/>
    </edge>
    <edge id=":287667298_11" function="internal">
        <lane id=":287667298_11_0" index="0" disallow="tram rail_urban rail rail_electric rail_fast ship" speed="3.65" length="4.67" shape="2030.34,5049.98 2029.69,5051.27 2028.94,5051.76 2028.10,5051.46 2027.16,5050.36"/>
    </edge>
    <edge id=":287667298_12" function="internal">
        <lane id=":287667298_12_0" index="0" disallow="tram rail_urban rail rail_electric rail_fast ship" speed="6.24" length="9.05" shape="2022.04,5056.09 2024.54,5055.75 2026.23,5054.69 2027.10,5052.89 2027.16,5050.36"/>
    </edge>
    <edge id=":287667298_13" function="internal">
        <lane id=":287667298_13_0" index="0" disallow="tram rail_urban rail rail_electric rail_fast ship" speed="13.89" length="15.31" shape="2022.04,5056.09 2037.35,5055.99"/>
    </edge>
    <edge id=":287667298_14" function="internal">
        <lane id=":287667298_14_0" index="0" disallow="tram rail_urban rail rail_electric rail_fast ship" speed="8.87" length="6.08" shape="2022.04,5056.09 2026.06,5056.69 2027.83,5057.65"/>
    </edge>
    <edge id=":287667298_15" function="internal">
        <lane id=":287667298_15_0" index="0" disallow="tram rail_urban rail rail_electric rail_fast ship" speed="3.65" length="2.34" shape="2022.04,5056.09 2023.23,5056.90 2023.63,5057.71"/>
    </edge>
    <edge id=":287667298_18" function="internal">
        <lane id=":287667298_18_0" index="0" disallow="tram rail_urban rail rail_electric rail_fast ship" speed="8.87" length="9.16" shape="2027.83,5057.65 2029.16,5058.38 2031.33,5061.18 2032.57,5065.09"/>
    </edge>
    <edge id=":287667298_19" function="internal">
        <lane id=":287667298_19_0" index="0" disallow="tram rail_urban rail rail_electric rail_fast ship" speed="3.65" length="2.34" shape="2023.63,5057.71 2023.22,5058.50 2022.01,5059.29"/>
    </edge>
    <edge id=":287668504_0" function="internal">
        <lane id=":287668504_0_0" index="0" disallow="tram rail_urban rail rail_electric rail_fast ship" speed="3.65" length="4.67" shape="2967.71,6216.15 2966.43,6216.83 2965.54,6216.80 2965.03,6216.07 2964.89,6214.63"/>
    </edge>
    <edge id=":287668505_0" function="internal">
        <lane id=":287668505_0_0" index="0" disallow="tram rail_urban rail rail_electric rail_fast ship" speed="6.57" length="9.11" shape="3198.62,5801.83 3196.27,5801.00 3194.22,5801.12 3192.44,5802.18 3190.96,5804.19"/>
    </edge>
    <edge id=":287668505_1" function="internal">
        <lane id=":287668505_1_0" index="0" disallow="tram rail_urban rail rail_electric rail_fast ship" speed="13.89" length="14.43" shape="3198.62,5801.83 3185.85,5795.09"/>
    </edge>
    <edge id=":287668505_2" function="internal">
        <lane id=":287668505_2_0" index="0" disallow="tram rail_urban rail rail_electric rail_fast ship" speed="8.02" length="5.95" shape="3198.62,5801.83 3195.47,5799.56 3194.39,5797.79"/>
    </edge>
    <edge id=":287668505_3" function="internal">
        <lane id=":287668505_3_0" index="0" disallow="tram rail_urban rail rail_electric rail_fast ship" speed="3.65" length="2.34" shape="3198.62,5801.83 3197.92,5800.56 3197.94,5799.67"/>
    </edge>
    <edge id=":287668505_16" function="internal">
        <lane id=":287668505_16_0" index="0" disallow="tram rail_urban rail rail_electric rail_fast ship" speed="8.02" length="8.26" shape="3194.39,5797.79 3193.80,5796.82 3193.61,5793.60 3194.90,5789.92"/>
    </edge>
    <edge id=":287668505_17" function="internal">
        <lane id=":287668505_17_0" index="0" disallow="tram rail_urban rail rail_electric rail_fast ship" speed="3.65" length="2.34" shape="3197.94,5799.67 3198.67,5799.15 3200.10,5798.99"/>
    </edge>
    <edge id=":287668505_4" function="internal">
        <lane id=":287668505_4_0" index="0" disallow="tram rail_urban rail rail_electric rail_fast ship" speed="6.53" length="9.07" shape="3197.74,5791.39 3196.91,5793.74 3197.03,5795.80 3198.09,5797.55 3200.10,5798.99"/>
    </edge>
    <edge id=":287668505_5" function="internal">
        <lane id=":287668505_5_0" index="0" disallow="tram rail_urban rail rail_electric rail_fast ship" speed="13.89" length="14.49" shape="3197.74,5791.39 3190.96,5804.19"/>
    </edge>
    <edge id=":287668505_6" function="internal">
        <lane id=":287668505_6_0" index="0" disallow="tram rail_urban rail rail_electric rail_fast ship" speed="7.98" length="14.24" shape="3197.74,5791.39 3195.47,5794.57 3192.73,5796.25 3189.52,5796.42 3185.85,5795.09"/>
    </edge>
    <edge id=":287668505_7" function="internal">
        <lane id=":287668505_7_0" index="0" disallow="tram rail_urban rail rail_electric rail_fast ship" speed="3.65" length="4.67" shape="3197.74,5791.39 3196.48,5792.09 3195.58,5792.08 3195.06,5791.35 3194.90,5789.92"/>
    </edge>
    <edge id=":287668505_8" function="internal">
        <lane id=":287668505_8_0" index="0" disallow="tram rail_urban rail rail_electric rail_fast ship" speed="6.48" length="9.03" shape="3187.35,5792.27 3189.69,5793.11 3191.72,5793.00 3193.46,5791.94 3194.90,5789.92"/>
    </edge>
    <edge id=":287668505_9" function="internal">
        <lane id=":287668505_9_0" index="0" disallow="tram rail_urban rail rail_electric rail_fast ship" speed="13.89" length="14.41" shape="3187.35,5792.27 3200.10,5798.99"/>
    </edge>
    <edge id=":287668505_10" function="internal">
        <lane id=":287668505_10_0" index="0" disallow="tram rail_urban rail rail_electric rail_fast ship" speed="7.99" length="5.90" shape="3187.35,5792.27 3190.51,5794.57 3191.53,5796.28"/>
    </edge>
    <edge id=":287668505_11" function="internal">
        <lane id=":287668505_11_0" index="0" disallow="tram rail_urban rail rail_electric rail_fast ship" speed="3.65" length="2.34" shape="3187.35,5792.27 3188.04,5793.54 3188.01,5794.43"/>
    </edge>
    <edge id=":287668505_18" function="internal">
        <lane id=":287668505_18_0" index="0" disallow="tram rail_urban rail rail_electric rail_fast ship" speed="7.99" length="8.33" shape="3191.53,5796.28 3192.16,5797.33 3192.31,5800.53 3190.96,5804.19"/>
    </edge>
    <edge id=":287668505_19" function="internal">
        <lane id=":287668505_19_0" index="0" disallow="tram rail_urban rail rail_electric rail_fast ship" speed="3.65" length="2.34" shape="3188.01,5794.43 3187.29,5794.95 3185.85,5795.09"/>
    </edge>
    <edge id=":287668505_12" function="internal">
        <lane id=":287668505_12_0" index="0" disallow="tram rail_urban rail rail_electric rail_fast ship" speed="6.49" length="9.04" shape="3188.14,5802.67 3189.00,5800.35 3188.91,5798.31 3187.86,5796.56 3185.85,5795.09"/>
    </edge>
    <edge id=":287668505_13" function="internal">
        <lane id=":287668505_13_0" index="0" disallow="tram rail_urban rail rail_electric rail_fast ship" speed="13.89" length="14.43" shape="3188.14,5802.67 3194.90,5789.92"/>
    </edge>
    <edge id=":287668505_14" function="internal">
        <lane id=":287668505_14_0" index="0" disallow="tram rail_urban rail rail_electric rail_fast ship" speed="8.05" length="14.22" shape="3188.14,5802.67 3190.46,5799.54 3193.23,5797.88 3196.44,5797.70 3200.10,5798.99"/>
    </edge>
    <edge id=":287668505_15" function="internal">
        <lane id=":287668505_15_0" index="0" disallow="tram rail_urban rail rail_electric rail_fast ship" speed="3.65" length="4.67" shape="3188.14,5802.67 3189.42,5802.00 3190.31,5802.02 3190.82,5802.76 3190.96,5804.19"/>
    </edge>
    <edge id=":287684801_0" function="internal">
        <lane id=":287684801_0_0" index="0" disallow="tram rail_urban rail rail_electric rail_fast ship" speed="3.65" length="4.67" shape="85.57,4968.82 84.32,4968.10 83.86,4967.33 84.21,4966.50 85.35,4965.62"/>
    </edge>
    <edge id=":287685205_0" function="internal">
        <lane id=":287685205_0_0" index="0" disallow="tram rail_urban rail rail_electric rail_fast ship" speed="3.65" length="4.67" shape="502.10,5605.34 500.81,5604.69 500.32,5603.94 500.62,5603.10 501.72,5602.16"/>
    </edge>
    <edge id=":287686473_0" function="internal">
        <lane id=":287686473_0_0" index="0" disallow="tram rail_urban rail rail_electric rail_fast ship" speed="13.89" length="15.24" shape="2757.09,5143.04 2753.63,5141.48 2749.94,5140.41 2746.15,5139.90 2742.37,5140.00"/>
    </edge>
    <edge id=":287686473_1" function="internal">
        <lane id=":287686473_1_0" index="0" disallow="tram rail_urban rail rail_electric rail_fast ship" speed="9.21" length="13.54" shape="2757.09,5143.04 2754.71,5141.17 2753.15,5138.56 2752.42,5135.23 2752.50,5131.16"/>
    </edge>
    <edge id=":287686473_2" function="internal">
        <lane id=":287686473_2_0" index="0" disallow="tram rail_urban rail rail_electric rail_fast ship" speed="3.65" length="4.67" shape="2757.09,5143.04 2756.41,5141.77 2756.44,5140.87 2757.17,5140.36 2758.61,5140.23"/>
    </edge>
    <edge id=":287686473_3" function="internal">
        <lane id=":287686473_3_0" index="0" disallow="tram rail_urban rail rail_electric rail_fast ship" speed="7.54" length="10.31" shape="2742.01,5136.82 2744.99,5136.15 2747.20,5134.93 2748.64,5133.15 2749.32,5130.81"/>
    </edge>
    <edge id=":287686473_4" function="internal">
        <lane id=":287686473_4_0" index="0" disallow="tram rail_urban rail rail_electric rail_fast ship" speed="13.89" length="17.14" shape="2742.01,5136.82 2746.08,5136.77 2750.52,5137.42 2754.86,5138.61 2758.61,5140.23"/>
    </edge>
    <edge id=":287686473_5" function="internal">
        <lane id=":287686473_5_0" index="0" disallow="tram rail_urban rail rail_electric rail_fast ship" speed="3.65" length="4.67" shape="2742.01,5136.82 2743.29,5137.47 2743.78,5138.22 2743.48,5139.06 2742.37,5140.00"/>
    </edge>
    <edge id=":287686473_6" function="internal">
        <lane id=":287686473_6_0" index="0" disallow="tram rail_urban rail rail_electric rail_fast ship" speed="6.22" length="9.58" shape="2747.58,5145.96 2747.54,5143.09 2746.67,5141.14 2744.94,5140.11 2742.37,5140.00"/>
    </edge>
    <edge id=":287686473_7" function="internal">
        <lane id=":287686473_7_0" index="0" disallow="tram rail_urban rail rail_electric rail_fast ship" speed="27.78" length="15.26" shape="2747.58,5145.96 2749.32,5130.81"/>
        <lane id=":287686473_7_1" index="1" disallow="tram rail_urban rail rail_electric rail_fast ship" speed="27.78" length="15.26" shape="2750.75,5146.33 2752.50,5131.16"/>
    </edge>
    <edge id=":287686473_9" function="internal">
        <lane id=":287686473_9_0" index="0" disallow="tram rail_urban rail rail_electric rail_fast ship" speed="6.74" length="12.58" shape="2750.75,5146.33 2751.67,5142.30 2753.29,5139.94 2755.60,5139.25 2758.61,5140.23"/>
    </edge>
    <edge id=":305705856_0" function="internal">
        <lane id=":305705856_0_0" index="0" disallow="tram rail_urban rail rail_electric rail_fast ship" speed="3.65" length="4.67" shape="297.59,5287.60 296.31,5286.94 295.82,5286.19 296.13,5285.35 297.23,5284.42"/>
    </edge>
    <edge id=":305707115_0" function="internal">
        <lane id=":305707115_0_0" index="0" disallow="tram rail_urban rail rail_electric rail_fast ship" speed="3.65" length="4.67" shape="435.21,5499.88 433.82,5499.50 433.19,5498.86 433.32,5497.98 434.21,5496.84"/>
    </edge>
    <edge id=":315233007_0" function="internal">
        <lane id=":315233007_0_0" index="0" disallow="tram rail_urban rail rail_electric rail_fast ship" speed="22.22" length="9.43" shape="1860.73,5450.69 1862.07,5460.03"/>
        <lane id=":315233007_0_1" index="1" disallow="tram rail_urban rail rail_electric rail_fast ship" speed="22.22" length="9.43" shape="1857.57,5451.15 1858.90,5460.47"/>
    </edge>
    <edge id=":315233007_2" function="internal">
        <lane id=":315233007_2_0" index="0" disallow="tram rail_urban rail rail_electric rail_fast ship" speed="6.04" length="7.86" shape="1857.57,5451.15 1857.77,5453.93 1857.44,5455.96 1856.60,5457.25 1855.23,5457.80"/>
    </edge>
    <edge id=":315233007_3" function="internal">
        <lane id=":315233007_3_0" index="0" disallow="tram rail_urban rail rail_electric rail_fast ship" speed="6.17" length="7.82" shape="1854.88,5454.62 1856.32,5454.86 1857.46,5455.91 1858.33,5457.78 1858.90,5460.47"/>
    </edge>
    <edge id=":315233007_4" function="internal">
        <lane id=":315233007_4_0" index="0" disallow="tram rail_urban rail rail_electric rail_fast ship" speed="3.65" length="4.67" shape="1854.88,5454.62 1856.16,5455.29 1856.65,5456.04 1856.34,5456.88 1855.23,5457.80"/>
    </edge>
    <edge id=":315233047_0" function="internal">
        <lane id=":315233047_0_0" index="0" disallow="tram rail_urban rail rail_electric rail_fast ship" speed="6.49" length="9.07" shape="1819.58,5143.00 1817.17,5143.67 1815.57,5144.95 1814.77,5146.83 1814.78,5149.31"/>
    </edge>
    <edge id=":315233047_1" function="internal">
        <lane id=":315233047_1_0" index="0" disallow="tram rail_urban rail rail_electric rail_fast ship" speed="13.89" length="11.56" shape="1819.58,5143.00 1808.06,5144.07"/>
    </edge>
    <edge id=":315233047_2" function="internal">
        <lane id=":315233047_2_0" index="0" disallow="tram rail_urban rail rail_electric rail_fast ship" speed="3.65" length="4.67" shape="1819.58,5143.00 1818.28,5142.36 1817.78,5141.62 1818.07,5140.78 1819.16,5139.83"/>
    </edge>
    <edge id=":315233047_3" function="internal">
        <lane id=":315233047_3_0" index="0" disallow="tram rail_urban rail rail_electric rail_fast ship" speed="6.46" length="9.07" shape="1812.97,5134.92 1813.58,5137.34 1814.81,5138.97 1816.67,5139.80 1819.16,5139.83"/>
    </edge>
    <edge id=":315233047_4" function="internal">
        <lane id=":315233047_4_0" index="0" disallow="tram rail_urban rail rail_electric rail_fast ship" speed="22.22" length="14.50" shape="1812.97,5134.92 1814.78,5149.31"/>
    </edge>
    <edge id=":315233047_5" function="internal">
        <lane id=":315233047_5_0" index="0" disallow="tram rail_urban rail rail_electric rail_fast ship" speed="7.23" length="11.82" shape="1812.97,5134.92 1813.01,5138.80 1812.21,5141.62 1810.56,5143.38 1808.06,5144.07"/>
    </edge>
    <edge id=":315233047_6" function="internal">
        <lane id=":315233047_6_0" index="0" disallow="tram rail_urban rail rail_electric rail_fast ship" speed="13.89" length="11.32" shape="1807.89,5140.88 1819.16,5139.83"/>
    </edge>
    <edge id=":315233047_7" function="internal">
        <lane id=":315233047_7_0" index="0" disallow="tram rail_urban rail rail_electric rail_fast ship" speed="7.67" length="12.04" shape="1807.89,5140.88 1810.42,5141.29 1812.42,5142.83 1813.87,5145.50 1814.78,5149.31"/>
    </edge>
    <edge id=":315233047_8" function="internal">
        <lane id=":315233047_8_0" index="0" disallow="tram rail_urban rail rail_electric rail_fast ship" speed="3.65" length="4.67" shape="1807.89,5140.88 1809.13,5141.61 1809.57,5142.39 1809.22,5143.21 1808.06,5144.07"/>
    </edge>
    <edge id=":315233185_0" function="internal">
        <lane id=":315233185_0_0" index="0" disallow="tram rail_urban rail rail_electric rail_fast ship" speed="22.22" length="9.40" shape="1835.85,5292.53 1837.22,5301.83"/>
    </edge>
    <edge id=":315233185_1" function="internal">
        <lane id=":315233185_1_0" index="0" disallow="tram rail_urban rail rail_electric rail_fast ship" speed="6.05" length="7.85" shape="1835.85,5292.53 1836.05,5295.30 1835.73,5297.33 1834.90,5298.63 1833.54,5299.18"/>
    </edge>
    <edge id=":315233185_2" function="internal">
        <lane id=":315233185_2_0" index="0" disallow="tram rail_urban rail rail_electric rail_fast ship" speed="6.17" length="7.81" shape="1833.18,5296.01 1834.60,5296.23 1835.75,5297.28 1836.62,5299.15 1837.22,5301.83"/>
    </edge>
    <edge id=":315233185_3" function="internal">
        <lane id=":315233185_3_0" index="0" disallow="tram rail_urban rail rail_electric rail_fast ship" speed="3.65" length="4.67" shape="1833.18,5296.01 1834.46,5296.66 1834.95,5297.41 1834.64,5298.25 1833.54,5299.18"/>
    </edge>
    <edge id=":317228402_0" function="internal">
        <lane id=":317228402_0_0" index="0" disallow="tram rail_urban rail rail_electric rail_fast ship" speed="3.65" length="4.67" shape="2363.59,5827.17 2362.97,5828.47 2362.23,5828.97 2361.38,5828.69 2360.43,5827.61"/>
    </edge>
    <edge id=":317228410_0" function="internal">
        <lane id=":317228410_0_0" index="0" disallow="tram rail_urban rail rail_electric rail_fast ship" speed="7.28" length="10.48" shape="2255.28,5062.44 2254.53,5059.71 2253.10,5057.76 2250.99,5056.59 2248.20,5056.22"/>
    </edge>
    <edge id=":317228410_1" function="internal">
        <lane id=":317228410_1_0" index="0" disallow="tram rail_urban rail rail_electric rail_fast ship" speed="22.22" length="15.38" shape="2255.28,5062.44 2253.19,5047.21"/>
    </edge>
    <edge id=":317228410_2" function="internal">
        <lane id=":317228410_2_0" index="0" disallow="tram rail_urban rail rail_electric rail_fast ship" speed="7.75" length="14.81" shape="2255.28,5062.44 2255.33,5058.29 2256.74,5055.36 2259.51,5053.65 2263.63,5053.15"/>
    </edge>
    <edge id=":317228410_3" function="internal">
        <lane id=":317228410_3_0" index="0" disallow="tram rail_urban rail rail_electric rail_fast ship" speed="3.65" length="4.67" shape="2255.28,5062.44 2255.91,5061.15 2256.65,5060.65 2257.50,5060.94 2258.45,5062.03"/>
    </edge>
    <edge id=":317228410_4" function="internal">
        <lane id=":317228410_4_0" index="0" disallow="tram rail_urban rail rail_electric rail_fast ship" speed="6.20" length="9.05" shape="2263.55,5056.35 2261.03,5056.65 2259.34,5057.70 2258.48,5059.49 2258.45,5062.03"/>
    </edge>
    <edge id=":317228410_5" function="internal">
        <lane id=":317228410_5_0" index="0" disallow="tram rail_urban rail rail_electric rail_fast ship" speed="13.89" length="15.35" shape="2263.55,5056.35 2248.20,5056.22"/>
    </edge>
    <edge id=":317228410_6" function="internal">
        <lane id=":317228410_6_0" index="0" disallow="tram rail_urban rail rail_electric rail_fast ship" speed="8.82" length="6.14" shape="2263.55,5056.35 2259.50,5055.70 2257.73,5054.70"/>
    </edge>
    <edge id=":317228410_7" function="internal">
        <lane id=":317228410_7_0" index="0" disallow="tram rail_urban rail rail_electric rail_fast ship" speed="3.65" length="2.34" shape="2263.55,5056.35 2262.37,5055.52 2261.99,5054.71"/>
    </edge>
    <edge id=":317228410_16" function="internal">
        <lane id=":317228410_16_0" index="0" disallow="tram rail_urban rail rail_electric rail_fast ship" speed="8.82" length="9.11" shape="2257.73,5054.70 2256.42,5053.96 2254.32,5051.13 2253.19,5047.21"/>
    </edge>
    <edge id=":317228410_17" function="internal">
        <lane id=":317228410_17_0" index="0" disallow="tram rail_urban rail rail_electric rail_fast ship" speed="3.65" length="2.34" shape="2261.99,5054.71 2262.41,5053.92 2263.63,5053.15"/>
    </edge>
    <edge id=":317228410_8" function="internal">
        <lane id=":317228410_8_0" index="0" disallow="tram rail_urban rail rail_electric rail_fast ship" speed="7.47" length="10.68" shape="2256.36,5046.75 2257.15,5049.50 2258.62,5051.48 2260.78,5052.69 2263.63,5053.15"/>
    </edge>
    <edge id=":317228410_9" function="internal">
        <lane id=":317228410_9_0" index="0" disallow="tram rail_urban rail rail_electric rail_fast ship" speed="22.22" length="15.42" shape="2256.36,5046.75 2258.45,5062.03"/>
    </edge>
    <edge id=":317228410_10" function="internal">
        <lane id=":317228410_10_0" index="0" disallow="tram rail_urban rail rail_electric rail_fast ship" speed="7.78" length="14.73" shape="2256.36,5046.75 2256.35,5050.87 2254.99,5053.82 2252.28,5055.60 2248.20,5056.22"/>
    </edge>
    <edge id=":317228410_11" function="internal">