<?xml version="1.0" encoding="UTF-8"?>

<!-- generated on 10/29/20 17:59:56 by Eclipse SUMO duarouter Version 1.6.0
<configuration xmlns:xsi="http://www.w3.org/2001/XMLSchema-instance" xsi:noNamespaceSchemaLocation="http://sumo.dlr.de/xsd/duarouterConfiguration.xsd">

    <input>
        <net-file value="osm.net.xml"/>
        <route-files value="osm.passenger.trips.xml"/>
    </input>

    <output>
        <output-file value="routes.rou.xml"/>
        <alternatives-output value="routes.rou.alt.xml"/>
    </output>

    <time>
        <begin value="0"/>
        <end value="3600.0"/>
    </time>

    <report>
        <no-warnings value="true"/>
        <ignore-errors value="true"/>
        <no-step-log value="true"/>
    </report>

</configuration>
-->

<routes xmlns:xsi="http://www.w3.org/2001/XMLSchema-instance" xsi:noNamespaceSchemaLocation="http://sumo.dlr.de/xsd/routes_file.xsd">
    <vType id="veh_passenger" vClass="passenger"/>
    <vehicle id="veh0" type="veh_passenger" depart="0.00" departLane="best" departSpeed="max">
        <route edges="29490159#0 29490159#1 29490159#2 29490159#3 376317859#0 376317859#1 376317859#2 376317859#3 376317859#5 376317859#6 376317859#7 from_east to_west 376317858#1 376317858#2 376317858#3 376317858#4 -26223153#5 -28854642#6 -28854642#5 -28854642#4 -28854642#2 -28854642#1"/>
    </vehicle>
    <vehicle id="veh1" type="veh_passenger" depart="2.26" departLane="best">
        <route edges="-29914022#5 29459207#10 29459207#11 -29913995#0 29913750#1 29913750#2 29913750#3 -29913750#3"/>
    </vehicle>
    <vehicle id="veh2" type="veh_passenger" depart="4.52" departLane="best">
        <route edges="29567093#4 29567093#5 29567093#6 376317851#2 376317851#3 376317851#4 376317851#5 376317851#6 376317851#7 376317851#8 376317851#10 376317851#11 376317850#1 29913990#0 29913990#1 29913990#2 -29913750#3 -29913750#2 29913993#0"/>
    </vehicle>
    <vehicle id="veh3" type="veh_passenger" depart="6.77" departLane="best" departSpeed="max">
        <route edges="376317854#0 376317854#1 376317854#2 376317854#3 376317854#4 376317854#5 376317854#7 from_north to_west 376317858#1 376317858#2 376317858#3 376317858#4 -26223153#5 -26223153#4 -26223153#3 -26223153#2 -26223153#1 -26647538#4 -26647538#3 -29459077#0"/>
    </vehicle>
    <vehicle id="veh4" type="veh_passenger" depart="9.03" departLane="best">
        <route edges="-681883958#0 -29913955#5 -29913955#4 29561907#5 29561907#6 376317858#1 376317858#2 376317858#3 376317858#4 -26223153#5 -28854642#6 -28854642#5 -28854642#4"/>
    </vehicle>
    <vehicle id="veh5" type="veh_passenger" depart="11.29" departLane="best" departSpeed="max">
        <route edges="-29913997 -29459165#11 -29459165#10 -29459165#9 -29459165#8 -29459165#7 -29459165#6 -29459165#5 -29459165#4 -29459165#3 665477223#2 29459077#3"/>
    </vehicle>
    <vehicle id="veh6" type="veh_passenger" depart="13.55" departLane="best" departSpeed="max">
        <route edges="-28854642#12 -28854642#11 -28854642#10 -28854642#9 -28854642#8 -28854642#7 26223153#5 29490152#0 29490152#1 29561907#8 29561907#9 28854753#7 28854753#8 28854753#9 28854753#10 28854753#11 28854753#12 28854753#13 -29561996#3"/>
    </vehicle>
    <vehicle id="veh7" type="veh_passenger" depart="15.80" departLane="best" departSpeed="max">
        <route edges="29544932#0 -29450201#5 28854642#1 28854642#2 28854642#4 28854642#5 29490136#1 29490136#2 29490136#3 29490136#4 29490136#5"/>
    </vehicle>
    <vehicle id="veh8" type="veh_passenger" depart="18.06" departLane="best" departSpeed="max">
        <route edges="-29913999 29561907#1 29561907#2 29561907#3 29561907#4 29561907#5 29561907#6 29561907#8 29561907#9"/>
    </vehicle>
    <vehicle id="veh9" type="veh_passenger" depart="20.32" departLane="best" departSpeed="max">
        <route edges="31277446#0 31277446#1 -31277452#1 -31277452#0 376317851#6 376317851#7 376317851#8 376317851#10 376317851#11 376317859#0 376317859#1 376317859#2 376317859#3 376317859#5 376317859#6 376317859#7 from_east to_west 376317858#1 376317858#2 376317858#3 376317858#4 -26223153#5 -26223153#4 -26223153#3"/>
    </vehicle>
    <vehicle id="veh10" type="veh_passenger" depart="22.58" departLane="best" departSpeed="max">
        <route edges="31277446#0 31277446#1 -31277452#1 -31277452#0 376317851#6 376317851#7 376317851#8 376317851#10 376317851#11 376317859#0 376317859#1 376317859#2 29914022#1 -29914001#4 -29914001#3 29914001#3"/>
    </vehicle>
    <vehicle id="veh11" type="veh_passenger" depart="24.83" departLane="best" departSpeed="max">
        <route edges="-31277534#2 -31277534#1 31277531#1 29490159#2 29490159#3 376317859#0 376317859#1 376317859#2 376317859#3 376317859#5 376317859#6 359878645 -359878646#1 -359878646#0 -359878644#0 28854753#9 -29561861#3 -29561861#2 -29561861#1 -29561861#0"/>
    </vehicle>
    <vehicle id="veh12" type="veh_passenger" depart="27.09" departLane="best">
        <route edges="681867486#5 68441979#0 68441979#1 68441979#2 29450201#0 29450201#2 29450201#3 29450201#4 29450201#5 29450201#6 29450201#7 376317854#2 29567093#0 -29561861#1 29562084#1 29562084#2 29562084#3 29562084#4 29562084#5 -359677835#0"/>
    </vehicle>
    <vehicle id="veh13" type="veh_passenger" depart="29.35" departLane="best">
        <route edges="-29459207#0 679261833 -29450214#9 -29459116#3 -29459116#2 -29459116#1 -29459116#0"/>
    </vehicle>
    <vehicle id="veh14" type="veh_passenger" depart="31.61" departLane="best">
        <route edges="31277542#1 31277542#3 -31277543#0 -376317850#2 -376317850#1 -376317851#11 -376317851#10 -376317851#8 -376317851#7 -376317851#6 -376317851#5 -376317851#4 -376317851#3 -376317851#2 -376317851#1 -29562084#6 -29562084#5 -29562084#4 -29562084#3 29561963#1"/>
    </vehicle>
    <vehicle id="veh15" type="veh_passenger" depart="33.87" departLane="best" departSpeed="max">
        <route edges="31277446#0 31277446#1 -31277452#1 -31277452#0 376317851#6 376317851#7 376317851#8 376317851#10 376317851#11 376317859#0 376317859#1 376317859#2 376317859#3 376317859#5 376317859#6 376317859#7 from_east to_south 376317855#2 376317855#3 376317855#4 376317855#5 29459165#9 29914013#6"/>
    </vehicle>
    <vehicle id="veh16" type="veh_passenger" depart="36.12" departLane="best">
        <route edges="29450214#5 29450214#6 26223153#4 26223153#5 29490152#0 29490152#1 from_west to_east 29490152#4 29490152#5 29490152#7 29490152#8 29490152#9 29490152#10 29490152#11 701496351#0 701496351#1 701496351#2"/>
    </vehicle>
    <vehicle id="veh17" type="veh_passenger" depart="38.38" departLane="best">
        <route edges="-376317850#5 -376317850#4 -376317850#3 -376317850#2 -376317850#1 376317859#0 376317859#1 376317859#2 29490152#8 29490152#9 29490152#10"/>
    </vehicle>
    <vehicle id="veh18" type="veh_passenger" depart="40.64" departLane="best">
        <route edges="31277493#0 -31277493#0 677007645 376317851#11 376317859#0 376317859#1 -359677835#11 -359677835#10 -359677835#9 -359616809 29561996#6"/>
    </vehicle>
    <vehicle id="veh19" type="veh_passenger" depart="42.90" departLane="best">
        <route edges="359677835#6 359677835#7 -29450236#14 -29450236#13 -29450236#12 -29450236#11 -29450236#10 -29561861#5 -29561861#3 -29561861#2 29561861#2"/>
    </vehicle>
    <vehicle id="veh20" type="veh_passenger" depart="45.15" departLane="best" departSpeed="max">
        <route edges="29561978#0 -29562084#3 -29562084#2 -29562084#1 -29562084#0 376317854#1 -29450201#7 -29450201#6 -29450201#5 -29450201#4 -29450201#3 -29450201#2"/>
    </vehicle>
    <vehicle id="veh21" type="veh_passenger" depart="47.41" departLane="best">
        <route edges="-29914001#3 -29914012#0 29490152#5 29490152#7 29490152#8 29490152#9 29490152#10 29490152#11 -376317851#11 -376317851#10 -376317851#8 -376317851#7 -376317851#6 31277452#0 31277452#1 -31277446#1 -31277446#0"/>
    </vehicle>
    <vehicle id="veh22" type="veh_passenger" depart="49.67" departLane="best">
        <route edges="-29459116#9 29459116#9 -29914013#3 -29914013#1 -29914013#0 29490152#4 29490152#5 29490152#7 29490152#8 29490152#9 29490152#10 29490152#11 376317850#1 29913990#0 29913990#1 -29913850"/>
    </vehicle>
    <vehicle id="veh23" type="veh_passenger" depart="51.93" departLane="best" departSpeed="max">
        <route edges="29490159#0 29490159#1 29490159#2 29490159#3 -376317851#11"/>
    </vehicle>
    <vehicle id="veh24" type="veh_passenger" depart="54.18" departLane="best">
        <route edges="-359677835#9 -359677835#8 -29450236#14 -29450236#13 -29450236#12 -29450236#11 -29561841#5 -29561841#3 -29567087#1"/>
    </vehicle>
    <vehicle id="veh25" type="veh_passenger" depart="56.44" departLane="best">
        <route edges="-29914019#4 -29914019#3 -29914019#2 -29914019#1 -29914001#5 -29914022#1 376317859#3 376317859#5 376317859#6 376317859#7 from_east to_west 376317858#1 376317858#2 376317858#3 376317858#4 -26223153#5 -26223153#4 -26223153#3 -26223153#2 -26223153#1 681867486#0"/>
    </vehicle>
    <vehicle id="veh26" type="veh_passenger" depart="58.70" departLane="best" departSpeed="max">
        <route edges="29544932#0 29450201#6 29450201#7 376317854#2 29567093#0 29567093#1 29567093#2 29567093#3 29561978#2 29561978#3"/>
    </vehicle>
    <vehicle id="veh27" type="veh_passenger" depart="60.96" departLane="best">
        <route edges="-29567093#1 -29567093#0 376317854#3 376317854#4 376317854#5 376317854#7 from_north to_south 376317855#2 376317855#3 376317855#4 376317855#5 29459165#9 29914013#6"/>
    </vehicle>
    <vehicle id="veh28" type="veh_passenger" depart="63.22" departLane="best" departSpeed="max">
        <route edges="-29566989#2 -29566989#1 -29459165#3 665477223#2 665477223#3 665477223#4 -665477223#4"/>
    </vehicle>
    <vehicle id="veh29" type="veh_passenger" depart="65.47" departLane="best">
        <route edges="from_east to_west 29561907#8 29561907#9 29561907#11 685755221 376317854#4 29567087#0 29567087#1 29567087#2 29567087#3"/>
    </vehicle>
    <vehicle id="veh30" type="veh_passenger" depart="67.73" departLane="best">
        <route edges="29450236#3 28854642#5 28854642#6 26223153#5 29490152#0 29490152#1 from_west to_east 29490152#4 29490152#5 29490152#7 29490152#8 29914019#0 29914019#1 29914019#2 29914019#3 29914019#4 29913756#0 29913995#2"/>
    </vehicle>
    <vehicle id="veh31" type="veh_passenger" depart="69.99" departLane="best">
        <route edges="-29914001#5 -29914022#1 376317859#3 376317859#5 376317859#6 376317859#7 from_east to_west 376317858#1 376317858#2 376317858#3 376317858#4 -26223153#5 28854642#7 -28854642#7"/>
    </vehicle>
    <vehicle id="veh32" type="veh_passenger" depart="72.25" departLane="best">
        <route edges="-31277485#2 -31277477#0 376317851#8 376317851#10 376317851#11 376317859#0 376317859#1 376317859#2 376317859#3 376317859#5 376317859#6 376317859#7 from_east to_south 376317855#2 376317855#3 376317855#4 29459207#5 -29914013#4"/>
    </vehicle>
    <vehicle id="veh33" type="veh_passenger" depart="74.50" departLane="best">
        <route edges="-29913995#1 -29459207#11 -29459207#10 -29459207#9 -29459207#7 -29914012#3 -29914012#2 681883958#1"/>
    </vehicle>
    <vehicle id="veh34" type="veh_passenger" depart="76.76" departLane="best" departSpeed="max">
        <route edges="376317851#0 376317851#1 376317851#2 376317851#3 376317851#4 376317851#5 376317851#6 376317851#7 376317851#8 31277520#0 -31277520#0"/>
    </vehicle>
    <vehicle id="veh35" type="veh_passenger" depart="79.02" departLane="best" departSpeed="max">
        <route edges="29561841#0 -29562084#1 -29562084#0 376317854#1 376317854#2 376317854#3 376317854#4 376317854#5 376317854#7 from_north to_west 376317858#1 376317858#2 376317858#3 376317858#4 -26223153#5 28854642#7 28854642#8 28854642#9 28854642#10 28854642#11 -685755225#4 -685755225#3 -685755225#2 -685755225#1 -685755225#0"/>
    </vehicle>
    <vehicle id="veh36" type="veh_passenger" depart="81.28" departLane="best">
        <route edges="376317855#5 -29459165#8 29561907#2 29561907#3 29561907#4 29561907#5 29561907#6 376317858#1 376317858#2 376317858#3 376317858#4 -26223153#5 -28854642#6 -28854642#5 -28854642#4 28854745#10 28854745#11 28854753#2"/>
    </vehicle>
    <vehicle id="veh37" type="veh_passenger" depart="83.53" departLane="best">
        <route edges="-29914019#2 -29914019#1 -29914001#5 -29914022#1 376317859#3 376317859#5 376317859#6 376317859#7 from_east to_south -29914001#0"/>
    </vehicle>
    <vehicle id="veh38" type="veh_passenger" depart="85.79" departLane="best">
        <route edges="29450236#8 -29450236#8 from_north to_south 376317855#2 376317855#3 29459116#9 29459116#10 -29914012#2"/>
    </vehicle>
    <vehicle id="veh39" type="veh_passenger" depart="88.05" departLane="best" departSpeed="max">
        <route edges="29459165#0 29459165#1 29459165#2 29459165#3 29459165#4 -28854642#10 -28854642#9 -28854642#8 -28854642#7 -28854642#6 -29490136#0 376317858#4"/>
    </vehicle>
    <vehicle id="veh40" type="veh_passenger" depart="90.31" departLane="best" departSpeed="max">
        <route edges="-665477223#11 29450201#3 29450201#4 29450201#5 29450201#6 29450201#7 376317854#2 29567093#0 29567093#1 29567093#2 29567093#3 29567093#4 29567093#5 -29567093#5"/>
    </vehicle>
    <vehicle id="veh41" type="veh_passenger" depart="92.57" departLane="best">
        <route edges="to_south 376317855#2 376317855#3 29459116#9 29459116#10 29459116#11"/>
    </vehicle>
    <vehicle id="veh42" type="veh_passenger" depart="94.82" departLane="best">
        <route edges="-29459165#8 29561907#2 29561907#3 29561907#4 29561907#5 29561907#6 376317858#1 376317858#2 376317858#3 376317858#4 -26223153#5 -28854642#6 -28854642#5 -28854642#4 -28854642#2 -28854642#1 -29450201#4"/>
    </vehicle>
    <vehicle id="veh43" type="veh_passenger" depart="97.08" departLane="best" departSpeed="max">
        <route edges="-29490136#5 681867486#1 681867486#2 681867486#3 27844691#0 29566920"/>
    </vehicle>
    <vehicle id="veh44" type="veh_passenger" depart="99.34" departLane="best">
        <route edges="29914019#4 -29913869 -29914022#6 -29914022#5 -29914022#4 -29914022#2 -29914022#1 376317859#3 376317859#5 376317859#6 376317859#7 from_east to_west 376317858#1 376317858#2 376317858#3 376317858#4 -26223153#5 -26223153#4 -26223153#3 -26223153#2 -26223153#1 681867486#0 681867486#1 681867486#2 681867486#3 27844691#0 27844691#1"/>
    </vehicle>
    <vehicle id="veh45" type="veh_passenger" depart="101.60" departLane="best">
        <route edges="-29450236#7 -29450236#6 -29450236#5 -29450236#4 -29450236#3 -29450236#2 -665477223#6"/>
    </vehicle>
    <vehicle id="veh46" type="veh_passenger" depart="103.85" departLane="best">
        <route edges="to_east 29914013#0 -29914001#1 376317855#2 376317855#3 376317855#4 376317855#5 29459165#9"/>
    </vehicle>
    <vehicle id="veh47" type="veh_passenger" depart="106.11" departLane="best">
        <route edges="685755222 685755221 376317854#4 376317854#5 376317854#7 from_north to_east 29490152#4 29490152#5 29490152#7 29490152#8 29490152#9 29490152#10 29490152#11 -376317851#11 -376317851#10 -376317851#8 -376317851#7 -376317851#6 -376317851#5 376317851#5"/>
    </vehicle>
    <vehicle id="veh48" type="veh_passenger" depart="108.37" departLane="best">
        <route edges="-26647538#1 685755225#1 685755225#2 685755225#3 685755225#4 685755225#5 685755225#6 685755225#7 29561907#0 29561907#1 29459165#8 29459165#9 29459165#10 29914012#5"/>
    </vehicle>
    <vehicle id="veh49" type="veh_passenger" depart="110.63" departLane="best">
        <route edges="29561907#6 from_west to_south 376317855#2 376317855#3 376317855#4 29459207#5 29459207#6"/>
    </vehicle>
    <vehicle id="veh50" type="veh_passenger" depart="112.89" departLane="best">
        <route edges="-29914019#4 -29914019#3 -29914019#2 -29914019#1 -29914019#0 29490152#9 29490152#10 29490152#11 -376317851#11 -376317851#10 -376317851#8 -376317851#7 -376317851#6 -376317851#5 -376317851#4 -31277433 28854745#0 28854745#1 -29561978#3 29567087#4"/>
    </vehicle>
    <vehicle id="veh51" type="veh_passenger" depart="115.14" departLane="best">
        <route edges="-29544932#1 -29450201#5 28854642#1 28854642#2 28854642#4 28854642#5"/>
    </vehicle>
    <vehicle id="veh52" type="veh_passenger" depart="117.40" departLane="best">
        <route edges="26223153#4 -26223153#4 -26223153#3 -26223153#2 -26223153#1 681867486#0 681867486#1 681867486#2 681867486#3 681867486#4 681867486#5 68441979#0 68441979#1 68441979#2 68441979#3"/>
    </vehicle>
    <vehicle id="veh53" type="veh_passenger" depart="119.66" departLane="best" departSpeed="max">
        <route edges="376317851#0 376317851#1 376317851#2 376317851#3 376317851#4 376317851#5 376317851#6 376317851#7 376317851#8 376317851#10 376317851#11 376317859#0 376317859#1 376317859#2 376317859#3 376317859#5 376317859#6 376317859#7 from_east to_south 376317855#2 376317855#3 376317855#4 29459207#5 29459207#6 -29914012#3"/>
    </vehicle>
    <vehicle id="veh54" type="veh_passenger" depart="121.92" departLane="best">
        <route edges="28854753#2 28854753#3 -28854642#2 -28854642#1 29450201#5 29450201#6 29450201#7 376317854#2 29567093#0 29567093#1 29567093#2 -29561963#1 -29561963#0"/>
    </vehicle>
    <vehicle id="veh55" type="veh_passenger" depart="124.17" departLane="best">
        <route edges="376317855#4 -29459207#4 29561907#3 29561907#4 29561907#5 29561907#6 29561907#8 29561907#9 29561907#11 685755221 376317854#4"/>
    </vehicle>
    <vehicle id="veh56" type="veh_passenger" depart="126.43" departLane="best" departSpeed="max">
        <route edges="-31277476#2 -31277476#1 -31277476#0 -376317851#6 -376317851#5 -376317851#4 -31277433 28854745#0 28854745#1 28854745#2 28854745#3 -29561841#3 29567087#2"/>
    </vehicle>
    <vehicle id="veh57" type="veh_passenger" depart="128.69" departLane="best">
        <route edges="29459207#7 -29914008#3 -29914008#2 -29914008#1 -29914008#0 29490152#7 376317859#3 376317859#5 376317859#6 359878645 -359878646#1 -359878646#0 29450236#9 29450236#10 -29561841#5"/>
    </vehicle>
    <vehicle id="veh58" type="veh_passenger" depart="130.95" departLane="best">
        <route edges="29913995#1 -29913756#0 -29914019#4 -29914019#3 -29914019#2 -29914019#1 -29914001#5 -29914022#1 376317859#3 376317859#5 376317859#6 376317859#7 from_east to_west 376317858#1 376317858#2 376317858#3 29490136#0"/>
    </vehicle>
    <vehicle id="veh59" type="veh_passenger" depart="133.20" departLane="best">
        <route edges="29914012#1 -681883958#0 -29913955#5 376317855#3 376317855#4 -29459207#4 -29459207#3 -29459207#2 -29459207#1 29459207#1"/>
    </vehicle>
    <vehicle id="veh60" type="veh_passenger" depart="135.46" departLane="best">
        <route edges="-26223153#0 26223153#0 26223153#1 26223153#2 26223153#3 26223153#4 26223153#5 29490152#0 29490152#1 from_west to_east 29490152#4 29490152#5 29490152#7 29490152#8 29490152#9 29490152#10 29490152#11 701496351#0 -31277531#1 31277534#1 -31277534#1"/>
    </vehicle>
    <vehicle id="veh61" type="veh_passenger" depart="137.72" departLane="best" departSpeed="max">
        <route edges="-27844691#1 -27844691#0 681867486#4 28854753#0 28854753#1 28854753#2 28854753#3 28854642#4 29450236#4 29450236#5 685755220#3 376317858#2 679261835"/>
    </vehicle>
    <vehicle id="veh62" type="veh_passenger" depart="139.98" departLane="best" departSpeed="max">
        <route edges="376317851#0 376317851#1 376317851#2 376317851#3 376317851#4 376317851#5 376317851#6 376317851#7 376317851#8 376317851#10 376317851#11 376317850#1 376317850#2 376317850#3 376317850#4 376317850#5 31277549"/>
    </vehicle>
    <vehicle id="veh63" type="veh_passenger" depart="142.24" departLane="best">
        <route edges="-31277481#1 -31277481#0 376317851#10 376317851#11 376317859#0 376317859#1 376317859#2 376317859#3 376317859#5 376317859#6 376317859#7 from_east to_west 376317858#1 376317858#2 376317858#3 376317858#4 -26223153#5 -28854642#6 -28854642#5 -28854642#4 -28854642#2 -28854642#1 -29450201#4 -29450214#0"/>
    </vehicle>
    <vehicle id="veh64" type="veh_passenger" depart="144.49" departLane="best" departSpeed="max">
        <route edges="376317851#0 376317851#1 376317851#2 376317851#3 376317851#4 376317851#5 376317851#6 376317851#7 376317851#8 376317851#10 376317851#11 376317859#0 376317859#1 376317859#2 376317859#3 376317859#5 376317859#6 376317859#7 from_east to_west 376317858#1 376317858#2 376317858#3 376317858#4 -26223153#5 -26223153#4 -26223153#3 -26223153#2 -26223153#1 681867486#0 681867486#1 681867486#2 681867486#3 681867486#4 681867486#5 68441979#0 68441979#1"/>
    </vehicle>
    <vehicle id="veh65" type="veh_passenger" depart="146.75" departLane="best">
        <route edges="-29459165#2 -29459165#1 26647538#2 26647538#3 26647538#4 681867486#0 681867486#1 681867486#2 681867486#3 681867486#4 681867486#5 68441979#0 68441979#1 29450211#0 29450225#1"/>
    </vehicle>
    <vehicle id="veh66" type="veh_passenger" depart="149.01" departLane="best">
        <route edges="-29459077#3 665477223#3 665477223#4 26223153#3 26223153#4 26223153#5 29490152#0 29490152#1 from_west to_east 29490152#4 29490152#5 29490152#7 29490152#8 29490152#9 29490152#10 29490152#11 -376317851#11 -376317851#10 -376317851#8 -376317851#7 -376317851#6 31277452#0 31277452#1 31277452#3 31277452#4"/>
    </vehicle>
    <vehicle id="veh67" type="veh_passenger" depart="151.27" departLane="best">
        <route edges="29914001#3 -29914001#3 -29914001#2 -29914001#1 376317855#2 376317855#3 376317855#4 -29459207#4"/>
    </vehicle>
    <vehicle id="veh68" type="veh_passenger" depart="153.52" departLane="best">
        <route edges="28854642#2 28854642#4 28854642#5 28854642#6 26223153#5 29490152#0 29490152#1"/>
    </vehicle>
    <vehicle id="veh69" type="veh_passenger" depart="155.78" departLane="best">
        <route edges="-29914019#2 -29914019#1 -29914001#5 -29914022#1 376317859#3 376317859#5 376317859#6 376317859#7 from_east to_west 29561907#8 29561907#9 29561907#11 685755221 376317854#4 376317854#5"/>
    </vehicle>
    <vehicle id="veh70" type="veh_passenger" depart="158.04" departLane="best">
        <route edges="-681883958#2 -29914008#1 -29914008#0 29490152#7 29490152#8 29490152#9 29490152#10 29490152#11 -376317851#11 -376317851#10 -376317851#8 -376317851#7 -376317851#6 -376317851#5 -376317851#4 -376317851#3 -29567087#6 -29567087#5 -29567087#4"/>
    </vehicle>
    <vehicle id="veh71" type="veh_passenger" depart="160.30" departLane="best">
        <route edges="29450214#8 29459116#4 29459116#5 29459116#6 29459116#7 29459116#8 376317855#4 376317855#5 29459165#9 29914013#6"/>
    </vehicle>
    <vehicle id="veh72" type="veh_passenger" depart="162.55" departLane="best" departSpeed="max">
        <route edges="-29913990#4 29913756#4 -376317850#6 -376317850#5 -376317850#4 -376317850#3 -376317850#2 -376317850#1 -376317851#11 -677007645 31277493#0 -31277493#0"/>
    </vehicle>
    <vehicle id="veh73" type="veh_passenger" depart="164.81" departLane="best">
        <route edges="to_east 29490152#4 29490152#5 29490152#7 29490152#8 29490152#9 29914014#0 29914014#2 681744324 29913750#1"/>
    </vehicle>
    <vehicle id="veh74" type="veh_passenger" depart="167.07" departLane="best" departSpeed="max">
        <route edges="-685755225#7 -685755225#6 -685755225#5 -28854642#11 -29459165#4 -29459165#3 -29459165#2 -29459165#1 -29459165#0 29459165#0"/>
    </vehicle>
    <vehicle id="veh75" type="veh_passenger" depart="169.33" departLane="best">
        <route edges="-29561861#3 -29567087#0 376317854#5 376317854#7 from_north to_east 29490152#4 29490152#5 29490152#7 29490152#8 29490152#9 29914014#0 29914014#2 681744324 29913750#1 29913993#0 -29913756#1"/>
    </vehicle>
    <vehicle id="veh76" type="veh_passenger" depart="171.59" departLane="best">
        <route edges="-31277534#1 31277531#1 29490159#2 29490159#3 376317859#0 376317859#1 376317859#2 376317859#3 376317859#5 376317859#6 376317859#7 from_east to_west 29561907#8"/>
    </vehicle>
    <vehicle id="veh77" type="veh_passenger" depart="173.84" departLane="best">
        <route edges="-29914001#6 -29914019#0 29490152#9 29490152#10 29490152#11 -376317851#11 -376317851#10 -376317851#8 -376317851#7 -376317851#6 -376317851#5 -376317851#4 -376317851#3 -376317851#2 -29567093#6"/>
    </vehicle>
    <vehicle id="veh78" type="veh_passenger" depart="176.10" departLane="best">
        <route edges="-29459116#1 29459116#1 29459116#2 -665477223#3 29459077#3 29566976#1 29566989#0"/>
    </vehicle>
    <vehicle id="veh79" type="veh_passenger" depart="178.36" departLane="best">
        <route edges="-29914001#5 -29914022#1 376317859#3 376317859#5"/>
    </vehicle>
    <vehicle id="veh80" type="veh_passenger" depart="180.62" departLane="best">
        <route edges="359677835#2 -29567087#5 -29561996#2 -29561996#1 -29562084#4 -29562084#3 -29562084#2 -29562084#1 -29562084#0 376317854#1 -29450201#7 -29450201#6 -29450201#5 -29450201#4 -29450201#3 -29450201#2 -29450218"/>
    </vehicle>
    <vehicle id="veh81" type="veh_passenger" depart="182.87" departLane="best" departSpeed="max">
        <route edges="-29914005#5 -29914005#4 -29914005#3 -29914005#1 29913820#1 29913990#1"/>
    </vehicle>
    <vehicle id="veh82" type="veh_passenger" depart="185.13" departLane="best" departSpeed="max">
        <route edges="-29913995#2 -29913995#1 -29459207#11 -29459207#10 -29459207#9"/>
    </vehicle>
    <vehicle id="veh83" type="veh_passenger" depart="187.39" departLane="best" departSpeed="max">
        <route edges="665477223#0 685755225#3 685755225#4 -28854642#11 -28854642#10 -28854642#9 -28854642#8 -28854642#7 -28854642#6 -28854642#5 -28854642#4 -28854642#2 29450211#4 29544932#2"/>
    </vehicle>
    <vehicle id="veh84" type="veh_passenger" depart="189.65" departLane="best">
        <route edges="28854642#10 -28854642#10 -28854642#9 -28854642#8 -28854642#7 26223153#5 29490152#0 29490152#1 from_west to_east 29490152#4 29490152#5 29490152#7 29490152#8 29490152#9 29490152#10 29490152#11 -376317851#11 -376317851#10 -376317851#8 -376317851#7 -376317851#6 -31277418#2 31277484"/>
    </vehicle>
    <vehicle id="veh85" type="veh_passenger" depart="191.90" departLane="best" departSpeed="max">
        <route edges="31277446#0 31277446#1 -31277452#1 -31277452#0 -376317851#5 -376317851#4 -31277433 28854745#0 28854745#1 -29561978#3"/>
    </vehicle>
    <vehicle id="veh86" type="veh_passenger" depart="194.16" departLane="best">
        <route edges="-29459207#2 -29459207#1 28854642#10 28854642#11 28854642#12"/>
    </vehicle>
    <vehicle id="veh87" type="veh_passenger" depart="196.42" departLane="best">
        <route edges="-681883958#2 -29914008#1 -29914008#0 29490152#7 376317859#3 376317859#5 376317859#6 376317859#7 from_east to_west 376317858#1 376317858#2 376317858#3 376317858#4 -26223153#5 -26223153#4 -26223153#3 -26223153#2 -26223153#1 681867486#0 681867486#1 681867486#2 681867486#3 681867486#4 681867486#5 68441979#0 68441979#1 68441979#2 29450201#0"/>
    </vehicle>
    <vehicle id="veh88" type="veh_passenger" depart="198.68" departLane="best">
        <route edges="29567087#2 29567087#3 29567087#4 29567087#5 29567087#6 376317851#3 376317851#4 376317851#5 376317851#6 376317851#7 376317851#8 376317851#10 376317851#11 376317850#1 376317850#2 376317850#3 376317850#4 376317850#5 376317850#6 -29913756#4 29913990#4"/>
    </vehicle>
    <vehicle id="veh89" type="veh_passenger" depart="200.94" departLane="best">
        <route edges="701496351#1 31277542#3 -31277543#0 -376317850#2 -376317850#1 376317859#0 376317859#1 376317859#2 29914022#1 29914022#2 -681883958#2 -681883958#1 29914012#2 -29459116#10"/>
    </vehicle>
    <vehicle id="veh90" type="veh_passenger" depart="203.19" departLane="best">
        <route edges="-665477223#5 26223153#3 26223153#4 26223153#5 29490152#0 29490152#1 29561907#8 29561907#9 29561907#11 685755221 376317854#4 29567087#0 -29561861#2 29567093#1 29567093#2 29567093#3 29567093#4 29567093#5 -359677835#1"/>
    </vehicle>
    <vehicle id="veh91" type="veh_passenger" depart="205.45" departLane="best">
        <route edges="359677835#6 359677835#7 359677835#8 359677835#9 359677835#10 359677835#11 376317859#2 29914022#1 -29914001#4 -29914001#3 -29914001#2"/>
    </vehicle>
    <vehicle id="veh92" type="veh_passenger" depart="207.71" departLane="best">
        <route edges="-29913869 -29914022#6 -29914022#5 -29914022#4 -29914022#2 -29914022#1 376317859#3 376317859#5 376317859#6 376317859#7 from_east to_west 29561907#8 29561907#9 29561907#11 685755221 376317854#4 376317854#5 28854745#6"/>
    </vehicle>
    <vehicle id="veh93" type="veh_passenger" depart="209.97" departLane="best">
        <route edges="-681883958#0 681883958#0 681883958#1 681883958#2 29914022#4 29914022#5 -29914022#5"/>
    </vehicle>
    <vehicle id="veh94" type="veh_passenger" depart="212.22" departLane="best" departSpeed="max">
        <route edges="-29914012#5 -29914012#4 -29914012#3 -29914012#2 -29914012#1 -29914012#0 29490152#5 29490152#7 29490152#8 29490152#9 29490152#10 29490152#11 -376317851#11 -677007645 677007645"/>
    </vehicle>
    <vehicle id="veh95" type="veh_passenger" depart="214.48" departLane="best" departSpeed="max">
        <route edges="-849311993#4 685755225#2 685755225#3 685755225#4 -28854642#11 -28854642#10 -28854642#9 -28854642#8 -28854642#7 26223153#5 29490152#0 29490152#1 from_west to_east 29490152#4 29490152#5 29490152#7 29490152#8 29490152#9 29490152#10 29490152#11 -376317851#11 -376317851#10 -376317851#8 -376317851#7 -376317851#6 -376317851#5 376317851#5"/>
    </vehicle>
    <vehicle id="veh96" type="veh_passenger" depart="216.74" departLane="best">
        <route edges="29450236#1 29450236#2 29450236#3 -28854642#4 -28854642#2 -28854642#1 29450201#5 29450201#6 29450201#7 -29450201#7"/>
    </vehicle>
    <vehicle id="veh97" type="veh_passenger" depart="219.00" departLane="best">
        <route edges="to_west 29561907#8 29561907#9 29561907#11 685755221 376317854#4 29567087#0 -29561861#2 29567093#1 29567093#2 29567093#3 29567093#4 29567093#5 359677835#2"/>